data_image0
_chemical_formula_structural       NC12NC2H8C7OC3OC4H12C7OC6H10Zn2C4O8
_chemical_formula_sum              "N2 C45 H30 O11 Zn2"
_cell_length_a       17.80743265337812
_cell_length_b       10.299371110280156
_cell_length_c       10.299382801718286
_cell_angle_alpha    85.58971110706742
_cell_angle_beta     91.51478421497153
_cell_angle_gamma    89.44795274300792

_space_group_name_H-M_alt    "P 1"
_space_group_IT_number       1

loop_
  _space_group_symop_operation_xyz
  'x, y, z'

loop_
  _atom_site_type_symbol
  _atom_site_label
  _atom_site_symmetry_multiplicity
  _atom_site_fract_x
  _atom_site_fract_y
  _atom_site_fract_z
  _atom_site_occupancy
  N   N1        1.0  0.7078731612115393  0.4063769362593208  0.6018494639287272  1.0000
  C   C1        1.0  0.6570702647694258  0.4359204922441648  0.5331624994974047  1.0000
  C   C2        1.0  0.5938664448907258  0.47267053221094835  0.44772456280835127  1.0000
  C   C3        1.0  0.6056242432692495  0.5266631178709524  0.3211263515549605  1.0000
  C   C4        1.0  0.5443271246919492  0.5619100973571465  0.23808382308830936  1.0000
  C   C5        1.0  0.471118064439057  0.5434278091474805  0.2809797097477545  1.0000
  C   C6        1.0  0.4583833884664388  0.4893165248150417  0.4080460119034437  1.0000
  C   C7        1.0  0.520537826692678  0.4540727955467054  0.491072030178324  1.0000
  C   C8        1.0  0.3806054330345554  0.46972074508142825  0.45380174209778984  1.0000
  C   C9        1.0  0.36179932868108794  0.4969357857125753  0.5808527117313771  1.0000
  C   C10       1.0  0.28856032029070766  0.4784950801226191  0.6237891748346203  1.0000
  C   C11       1.0  0.23318425741198792  0.4325852495831916  0.5405125298595135  1.0000
  C   C12       1.0  0.15780831073201454  0.4135920312604015  0.5848496972850294  1.0000
  N   N2        1.0  0.09721138739219072  0.39832276109770254  0.6204937297840514  1.0000
  C   C13       1.0  0.25129874553390374  0.40520141797764947  0.4140044590472327  1.0000
  C   C14       1.0  0.3244849483561962  0.42365685144727944  0.3708121197422054  1.0000
  H   H1        1.0  0.662098244798374  0.5414791884218122  0.2866952671174785  1.0000
  H   H2        1.0  0.5535488400805482  0.603985307386731  0.1403215383852474  1.0000
  H   H3        1.0  0.4244947517880278  0.5730486748040535  0.2154006487920339  1.0000
  H   H4        1.0  0.512014341476032  0.41061224260888607  0.5887093919333988  1.0000
  H   H5        1.0  0.4034682816287222  0.5341300125588222  0.6464372521117231  1.0000
  H   H6        1.0  0.275101524547061  0.5003628366022275  0.721803457817467  1.0000
  H   H7        1.0  0.2089129978808439  0.3692745720459469  0.34883330321646083  1.0000
  H   H8        1.0  0.3374150983110988  0.4002536091685888  0.27310063333955625  1.0000
  C   C15       1.0  0.9024952439657533  0.020979412432521768  0.6110545226200911  1.0000
  C   C16       1.0  0.8938662031441373  0.030421922950927043  0.47465783940674383  1.0000
  C   C17       1.0  0.8886653237303417  0.9180151294706582  0.405990675387421  1.0000
  C   C18       1.0  0.8939034313004126  0.7951533255708637  0.47497070436982325  1.0000
  C   C19       1.0  0.9025964995394116  0.7837101802298645  0.6113002207903513  1.0000
  C   C20       1.0  0.906645406713824  0.8972253365904469  0.6785815334181222  1.0000
  C   C21       1.0  0.8803371511973666  0.9278414956474921  0.2618465781292185  1.0000
  O   O1        1.0  0.9111452945546745  0.842154430477207  0.19929971716279282  1.0000
  C   C22       1.0  0.8370503328993297  0.03479387650748067  0.18866372550665522  1.0000
  C   C23       1.0  0.8580741467568523  0.07949720283094708  0.06252947182105673  1.0000
  C   C24       1.0  0.8174531578583901  0.1793389092661788  0.99120429554165  1.0000
  O   O2        1.0  0.84146326770862  0.22062799492014284  0.866257744440321  1.0000
  C   C25       1.0  0.8056693084873214  0.3208396024909998  0.7831096760709993  1.0000
  C   C26       1.0  0.7544220656703997  0.23451164135226454  0.04667331107941531  1.0000
  C   C27       1.0  0.7326272683111985  0.1895341660190424  0.17125360408188683  1.0000
  C   C28       1.0  0.7733817238253607  0.08997087044549844  0.24183300315234438  1.0000
  H   H9        1.0  0.919925605362034  0.21047610392949578  0.8682790760951697  1.0000
  H   H10       1.0  0.8920164776384868  0.12538555155917153  0.4215401855750802  1.0000
  H   H11       1.0  0.89045975305238  0.7083551974542593  0.42208398558230065  1.0000
  H   H12       1.0  0.9132982484494854  0.8891420416247737  0.7837334052333489  1.0000
  H   H13       1.0  0.906560895893577  0.4518539918829443  0.6635763001430539  1.0000
  H   H14       1.0  0.9066563834379328  0.037588400018538255  0.019483633379003603  1.0000
  H   H15       1.0  0.8363336324283256  0.33328036980918285  0.6907083456421402  1.0000
  H   H16       1.0  0.806766825763951  0.4142816346060056  0.8301807242833832  1.0000
  H   H17       1.0  0.7467986848447186  0.29382073724513974  0.7605265605480845  1.0000
  H   H18       1.0  0.7218003531004139  0.31167700856022934  0.9942233024560676  1.0000
  H   H19       1.0  0.6837613425944368  0.2316100332333417  0.2130641400871103  1.0000
  H   H20       1.0  0.7546220168397128  0.05522717458616387  0.337312170535081  1.0000
  C   C29       1.0  0.9026207992122812  0.4022700165371991  0.22981113957417204  1.0000
  C   C30       1.0  0.9815453481657168  0.40150079185734944  0.23228721604899727  1.0000
  C   C31       1.0  0.02135245500192484  0.3996247352878137  0.11647748393602542  1.0000
  C   C32       1.0  0.9813622839715138  0.40153261575995475  0.9970328898216955  1.0000
  C   C33       1.0  0.9024709071571724  0.4024195736626552  0.9925435420968491  1.0000
  C   C34       1.0  0.8635577446195886  0.40243840641958073  0.10952029547670139  1.0000
  C   C35       1.0  0.10468670344784692  0.4001964906369288  0.11884034308337599  1.0000
  O   O3        1.0  0.13779553102897468  0.46022078465535543  0.025918140076667935  1.0000
  C   C36       1.0  0.1504608279609383  0.33266600982973116  0.22651746718039312  1.0000
  C   C37       1.0  0.2210797131033091  0.3816652015543469  0.2610165443466892  1.0000
  C   C38       1.0  0.2650220878594811  0.31782194902319416  0.361355349016625  1.0000
  C   C39       1.0  0.23926546842462826  0.20405056684364095  0.42744978706603654  1.0000
  C   C40       1.0  0.1696425819524232  0.15358380021737394  0.39297492942697776  1.0000
  C   C41       1.0  0.12548614611300524  0.21705276654171368  0.2927278151391306  1.0000
  H   H21       1.0  0.7536786278732603  0.4057333583818059  0.43230360412065205  1.0000
  H   H22       1.0  0.012151062608385166  0.4038181488176193  0.32435260761505114  1.0000
  H   H23       1.0  0.0119753415466839  0.4010706809191093  0.907547428489874  1.0000
  H   H24       1.0  0.8027128640656753  0.4030322194010685  0.10680719203257016  1.0000
  H   H25       1.0  0.8721644664501407  0.40386528456474213  0.6632774779041593  1.0000
  H   H26       1.0  0.24194853783041223  0.4699070240845124  0.21110841207489123  1.0000
  H   H27       1.0  0.3191046210379132  0.356587121200462  0.3878304849327792  1.0000
  H   H28       1.0  0.27338641086821114  0.15471718299284445  0.5050117756139363  1.0000
  H   H29       1.0  0.14999653286949255  0.0648607711900142  0.44357023477170443  1.0000
  H   H30       1.0  0.07230525454651571  0.17498675528868102  0.2661085985032978  1.0000
  Zn  Zn1       1.0  0.8202277645260815  0.4040492094620667  0.6072372820789674  1.0000
  Zn  Zn2       1.0  0.9848567780961848  0.4006398964723236  0.6151165011978577  1.0000
  C   C42       1.0  0.9024968999136692  0.3972176336944597  0.8483690740334022  1.0000
  C   C43       1.0  0.9025894406447791  0.40747307366116603  0.3739849232776125  1.0000
  C   C44       1.0  0.9025745036911793  0.6395368858210544  0.6060784433358487  1.0000
  C   C45       1.0  0.9025117804701679  0.16515226240297465  0.6162756200220967  1.0000
  O   O4        1.0  0.9650547683495052  0.4079197848876252  0.4253610829000155  1.0000
  O   O5        1.0  0.964981184195978  0.39418235299537885  0.8029726852505457  1.0000
  O   O6        1.0  0.9650430077580509  0.5898582313388427  0.6073212468419527  1.0000
  O   O7        1.0  0.9649928886310674  0.21224391697869424  0.6210124212489762  1.0000
  O   O8        1.0  0.8400915978113979  0.5924451901205396  0.6013413593322272  1.0000
  O   O9        1.0  0.8400297744666247  0.39677087207351636  0.7969927289982685  1.0000
  O   O10       1.0  0.8401033589708939  0.41050825840244864  0.4193795652458876  1.0000
  O   O11       1.0  0.8400414792290197  0.2148323812238286  0.615031000958859  1.0000
