data_image0
_chemical_formula_structural       NC8NC6H8C6NCOH6C6FH3Zn2C4O8
_chemical_formula_sum              "N3 C31 H17 O9 F1 Zn2"
_cell_length_a       17.457602349358154
_cell_length_b       10.299619329790078
_cell_length_c       9.275646106892307
_cell_angle_alpha    84.95826498639607
_cell_angle_beta     92.91404810424501
_cell_angle_gamma    91.71362633690529

_space_group_name_H-M_alt    "P 1"
_space_group_IT_number       1

loop_
  _space_group_symop_operation_xyz
  'x, y, z'

loop_
  _atom_site_type_symbol
  _atom_site_label
  _atom_site_symmetry_multiplicity
  _atom_site_fract_x
  _atom_site_fract_y
  _atom_site_fract_z
  _atom_site_occupancy
  N   N1        1.0  0.7224949448604473  0.467465648988373  0.4737186779320621  1.0000
  C   C1        1.0  0.6614023015879846  0.42165335068334064  0.461914112940522  1.0000
  C   C2        1.0  0.5854004740559705  0.36466846436218914  0.44723983969524767  1.0000
  C   C3        1.0  0.5268998872554457  0.4040327381653819  0.5304857256171638  1.0000
  C   C4        1.0  0.4523368498404549  0.34915957714365087  0.5164946254277973  1.0000
  C   C5        1.0  0.39024698811263153  0.3907199118321678  0.604655158054084  1.0000
  C   C6        1.0  0.3156923534414205  0.40978229033369645  0.5426828922329047  1.0000
  C   C7        1.0  0.2571917396909136  0.448961488302273  0.6260487308803035  1.0000
  C   C8        1.0  0.18119859889032014  0.4686533178988605  0.5616143150172852  1.0000
  N   N2        1.0  0.12011302852652503  0.4844791675683773  0.5098092116485629  1.0000
  C   C9        1.0  0.27275378041723525  0.46931603397551025  0.7719520289715991  1.0000
  C   C10       1.0  0.34652390453341647  0.4506385152212937  0.8343551203714885  1.0000
  C   C11       1.0  0.40501306728894565  0.4116344971102026  0.7514980122416997  1.0000
  C   C12       1.0  0.43756253283870883  0.2542599822661915  0.41766501690134783  1.0000
  C   C13       1.0  0.49605156838333436  0.21517012904362545  0.33486372819352317  1.0000
  C   C14       1.0  0.5698299973388232  0.27014980869794347  0.3494660510205019  1.0000
  H   H1        1.0  0.5392794050500408  0.47851765164026006  0.6045486852509376  1.0000
  H   H2        1.0  0.3033197576858832  0.3958985960300019  0.4292921384133048  1.0000
  H   H3        1.0  0.2279146590563501  0.49957226161819857  0.8373457026079143  1.0000
  H   H4        1.0  0.3583831185692515  0.4660838504340914  0.9473312539935759  1.0000
  H   H5        1.0  0.46150534641078567  0.3961515737281176  0.802738034586769  1.0000
  H   H6        1.0  0.3810633165837753  0.20903773866923459  0.40582039409355075  1.0000
  H   H7        1.0  0.4841858811089758  0.14181444365802953  0.25946912533560784  1.0000
  H   H8        1.0  0.614669048770335  0.23901843648047927  0.28464031399509926  1.0000
  C   C15       1.0  0.9212058839022497  0.09460006939156962  0.49171746777485326  1.0000
  C   C16       1.0  0.884171882589472  0.10240237366201209  0.3532736673960397  1.0000
  C   C17       1.0  0.8666556679883194  0.9896639594628512  0.2826205076335182  1.0000
  C   C18       1.0  0.8844003941609646  0.8672526285160511  0.3534055171930033  1.0000
  C   C19       1.0  0.9214093932939488  0.8573349497544884  0.4918235964913076  1.0000
  C   C20       1.0  0.9398745683517952  0.9716417957651704  0.5599489575589733  1.0000
  N   N3        1.0  0.8276942048827155  0.001391258921961567  0.14186604260003932  1.0000
  C   C21       1.0  0.8397341221851741  0.9183171380524091  0.029394837799396223  1.0000
  O   O1        1.0  0.8935989020677855  0.8388393393084803  0.040351575644765214  1.0000
  H   H9        1.0  0.9903345058396809  0.2870462561060141  0.7535116611935682  1.0000
  H   H10       1.0  0.8692929257421368  0.1963752099983176  0.2990237342184112  1.0000
  H   H11       1.0  0.8679839054178772  0.7796355811338074  0.3019898150516773  1.0000
  H   H12       1.0  0.9684326855885954  0.9647520182665951  0.6666664549476593  1.0000
  H   H13       1.0  0.7921760217644651  0.08069719112261642  0.11526668186345157  1.0000
  H   H14       1.0  0.8032920069708789  0.9265372617091889  0.931308377785045  1.0000
  C   C22       1.0  0.9212194442292949  0.48002849753996646  0.06792253513401136  1.0000
  C   C23       1.0  0.9914729723522454  0.4966077978972529  0.14636163830769044  1.0000
  C   C24       1.0  0.0607722398803092  0.5009520765907514  0.07720605492389465  1.0000
  C   C25       1.0  0.06103499471524243  0.4886630024111302  0.9288522366628887  1.0000
  C   C26       1.0  0.9919843140291538  0.4743005488423371  0.8485906019050797  1.0000
  C   C27       1.0  0.9213958313930866  0.47190650777753923  0.9156184942217376  1.0000
  F   F1        1.0  0.1279641786180412  0.5155520645213154  0.15474141601213298  1.0000
  H   H15       1.0  0.7432845418692031  0.3669059736207889  0.16491273076157428  1.0000
  H   H16       1.0  0.11483712749404741  0.4915084148946584  0.8754203865307777  1.0000
  H   H17       1.0  0.8009352727899696  0.40105945222310363  0.6298313682304633  1.0000
  Zn  Zn1       1.0  0.8372389356203894  0.47237182035649683  0.4841419595709096  1.0000
  Zn  Zn2       1.0  0.005369023134480731  0.47956223506222256  0.4993977453681917  1.0000
  C   C28       1.0  0.9213594210372631  0.468267924274931  0.7553849360352188  1.0000
  C   C29       1.0  0.9212503741596897  0.48366784694019466  0.22815507738892915  1.0000
  C   C30       1.0  0.9213658022535554  0.7132167349755261  0.48605154188563854  1.0000
  C   C31       1.0  0.9212439351719904  0.23871747273182287  0.497488543066557  1.0000
  O   O2        1.0  0.985065245009232  0.48761230495900754  0.28772007272776445  1.0000
  O   O3        1.0  0.9851513959975936  0.46977984889229263  0.70739831349822  1.0000
  O   O4        1.0  0.9851556891077152  0.6675790601695017  0.48990961428558655  1.0000
  O   O5        1.0  0.9850608945076577  0.2898131015553971  0.5052086585151045  1.0000
  O   O6        1.0  0.8575470068726637  0.6621209514110729  0.47833104121035386  1.0000
  O   O7        1.0  0.8575427141593999  0.46432330118939125  0.6958196636812974  1.0000
  O   O8        1.0  0.857456562848847  0.48215572862846967  0.27613968759068297  1.0000
  O   O9        1.0  0.857452212364177  0.2843565148990108  0.4936283815896745  1.0000
