data_image0
_chemical_formula_structural       NC8NC6H8C7OC4NC3H8C7OC3OC4H12Zn2C4O8
_chemical_formula_sum              "N3 C46 H28 O11 Zn2"
_cell_length_a       17.457602349358154
_cell_length_b       10.299371701877257
_cell_length_c       10.299374482448636
_cell_angle_alpha    85.56746279880974
_cell_angle_beta     92.85818479457473
_cell_angle_gamma    91.69730494660953

_space_group_name_H-M_alt    "P 1"
_space_group_IT_number       1

loop_
  _space_group_symop_operation_xyz
  'x, y, z'

loop_
  _atom_site_type_symbol
  _atom_site_label
  _atom_site_symmetry_multiplicity
  _atom_site_fract_x
  _atom_site_fract_y
  _atom_site_fract_z
  _atom_site_occupancy
  N   N1        1.0  0.7228337036689314  0.45316524383142065  0.6269940623859691  1.0000
  C   C1        1.0  0.6617529202815403  0.4072424578626015  0.616361747075279  1.0000
  C   C2        1.0  0.5857658415371058  0.35012022422462186  0.6031446910293842  1.0000
  C   C3        1.0  0.527227477686216  0.39026422633891134  0.6780582855887126  1.0000
  C   C4        1.0  0.45267858990677406  0.3352601134039399  0.6654564355250765  1.0000
  C   C5        1.0  0.3905487415346851  0.37764621003593346  0.7447927277970854  1.0000
  C   C6        1.0  0.31601441171248573  0.3961280241427625  0.6890346027530789  1.0000
  C   C7        1.0  0.25747600556195904  0.43608807445234765  0.7640560877753805  1.0000
  C   C8        1.0  0.18150399699272118  0.4551762741627711  0.7060826701300503  1.0000
  N   N2        1.0  0.12043541791142091  0.4705168069808332  0.65947219112111  1.0000
  C   C9        1.0  0.27297969732814364  0.4578093308453768  0.8953443129775465  1.0000
  C   C10       1.0  0.3467292918068203  0.4397164114803245  0.9514901830470057  1.0000
  C   C11       1.0  0.4052560266686626  0.39993630621857795  0.876926493304653  1.0000
  C   C12       1.0  0.43795690762453837  0.23943492071264205  0.5765077991146786  1.0000
  C   C13       1.0  0.4964835080858684  0.19956950340073695  0.5019943157454481  1.0000
  C   C14       1.0  0.5702475395338098  0.25468586039280705  0.5151461674400276  1.0000
  H   H1        1.0  0.5395670067239667  0.4654427765468276  0.7447172179150074  1.0000
  H   H2        1.0  0.3036868498539015  0.3811821679380336  0.5870026010368105  1.0000
  H   H3        1.0  0.22811100797073897  0.4886780741610237  0.9541924143346552  1.0000
  H   H4        1.0  0.35854337597982416  0.45622002150385477  0.05314947123718872  1.0000
  H   H5        1.0  0.46173147231796585  0.38493340559524136  0.9230285927100311  1.0000
  H   H6        1.0  0.38146947099262685  0.1941018130274241  0.5658395762434634  1.0000
  H   H7        1.0  0.48465812955145593  0.12550770483016496  0.4341374343029935  1.0000
  H   H8        1.0  0.6151160861038709  0.2229472944112023  0.4568088921182058  1.0000
  C   C15       1.0  0.9215981218681639  0.08046901526249872  0.6431031538916635  1.0000
  C   C16       1.0  0.9253513007976135  0.09000613745490349  0.5067428631698407  1.0000
  C   C17       1.0  0.9263731715475969  0.9776094835673924  0.4378329547863679  1.0000
  C   C18       1.0  0.9253607317825595  0.854738157934665  0.5070610340029091  1.0000
  C   C19       1.0  0.9216783305008861  0.8432033106305913  0.6433749216270805  1.0000
  C   C20       1.0  0.9196164834082998  0.9566626547540865  0.7105749516957799  1.0000
  C   C21       1.0  0.9311419883448327  0.9875714169779847  0.2939704232280706  1.0000
  O   O1        1.0  0.9680772796780525  0.9034495121944335  0.2420408227116752  1.0000
  C   C22       1.0  0.8939971025883822  0.09288311734953547  0.2090228712401485  1.0000
  C   C23       1.0  0.9268773815414278  0.13899079540022097  0.09173669371724169  1.0000
  C   C24       1.0  0.8917553059925846  0.23737997123094656  0.010075823969942997  1.0000
  C   C25       1.0  0.926124360978101  0.284737190252756  0.8907250764913209  1.0000
  N   N3        1.0  0.9537555486234881  0.322802693806874  0.7947846649223366  1.0000
  C   C26       1.0  0.8231803600354607  0.2895562213166756  0.044646695934359645  1.0000
  C   C27       1.0  0.7896527659611207  0.24321008018997414  0.1601404224881617  1.0000
  C   C28       1.0  0.8245545650171912  0.1451087685288508  0.24177190115564762  1.0000
  H   H9        1.0  0.9283435380178718  0.18507300645890992  0.45409989519044286  1.0000
  H   H10       1.0  0.9267171030354712  0.7679724103139683  0.4541588020518476  1.0000
  H   H11       1.0  0.9167234764023608  0.9485063570168178  0.8156990512972994  1.0000
  H   H12       1.0  0.920909443129587  0.5113399036007648  0.6958381448143015  1.0000
  H   H13       1.0  0.9800879046938208  0.09922927555099402  0.0645058527003277  1.0000
  H   H14       1.0  0.7955346289388451  0.36558027755780986  0.9821480918966657  1.0000
  H   H15       1.0  0.7363114588312669  0.28298235155016127  0.18620755755418547  1.0000
  H   H16       1.0  0.7968204772530106  0.10916715303126791  0.3296640769873225  1.0000
  C   C29       1.0  0.9217093055517722  0.46192676528822035  0.26186234040279327  1.0000
  C   C30       1.0  0.0018472333361985208  0.480088386866391  0.26604213887507466  1.0000
  C   C31       1.0  0.04216982869939102  0.49071577512803405  0.1508551338234394  1.0000
  C   C32       1.0  0.00166384459302726  0.4800165127357496  0.030788285791507605  1.0000
  C   C33       1.0  0.9215671341569099  0.4617455673096964  0.02461569368270133  1.0000
  C   C34       1.0  0.8820316489865528  0.4531464984184003  0.1406951620187007  1.0000
  C   C35       1.0  0.12687984282553155  0.5085385967059515  0.1552405771809291  1.0000
  O   O2        1.0  0.16451363819994413  0.45663878630709  0.07244894764562758  1.0000
  C   C36       1.0  0.1688929678008455  0.5852536381279518  0.2534662837088406  1.0000
  C   C37       1.0  0.24373994348810935  0.5518020652938067  0.2977316792771605  1.0000
  C   C38       1.0  0.28472655859193174  0.6238549693312192  0.3893074454972243  1.0000
  O   O3        1.0  0.3589498873783572  0.5852018114723683  0.4306490545598628  1.0000
  C   C39       1.0  0.4070247462660289  0.6491706638004173  0.5229898937609172  1.0000
  C   C40       1.0  0.2504420871830375  0.7317456510650091  0.4364596076433493  1.0000
  C   C41       1.0  0.17649099574645466  0.7665695368197256  0.3917573017717377  1.0000
  C   C42       1.0  0.13594716013719355  0.6943029461267081  0.30045865555711315  1.0000
  H   H17       1.0  0.7706101159616953  0.42567173278942133  0.46146047729562545  1.0000
  H   H18       1.0  0.033094293758635374  0.48454401607685216  0.3591869130097367  1.0000
  H   H19       1.0  0.032734216830952796  0.48722803203888526  0.9419346955234186  1.0000
  H   H20       1.0  0.8202511615488467  0.43914436365749454  0.13666912703447087  1.0000
  H   H21       1.0  0.8908697846948312  0.4536463405424753  0.6948770482786397  1.0000
  H   H22       1.0  0.2703374265372469  0.4686505084289345  0.261996469966439  1.0000
  H   H23       1.0  0.46224361846341894  0.5982231194615948  0.5374405841115837  1.0000
  H   H24       1.0  0.3793209671599355  0.6461607160794587  0.6179609869912019  1.0000
  H   H25       1.0  0.41883039992471627  0.7516918426316068  0.48632816877574764  1.0000
  H   H26       1.0  0.28051214708684746  0.7894957775512063  0.5071264587891451  1.0000
  H   H27       1.0  0.15061409327345107  0.8502415909968475  0.4275804728405385  1.0000
  H   H28       1.0  0.07921818563629546  0.7245541171890344  0.26561195509093705  1.0000
  Zn  Zn1       1.0  0.8375729679980329  0.4581690456286973  0.6363740461533812  1.0000
  Zn  Zn2       1.0  0.0056961362309824164  0.46550235474764756  0.6501028363042077  1.0000
  C   C43       1.0  0.9215917592073763  0.45660603073404316  0.8804370308384286  1.0000
  C   C44       1.0  0.9216791810699636  0.4670670883250096  0.4060401295900413  1.0000
  C   C45       1.0  0.921660183025387  0.6990313657341969  0.6381479553105429  1.0000
  C   C46       1.0  0.9216106997062845  0.2246401904902513  0.6483292691173332  1.0000
  O   O4        1.0  0.985470936586034  0.47156951449690343  0.4596375150169044  1.0000
  O   O5        1.0  0.9854015982414589  0.4576684368602054  0.8372591052707049  1.0000
  O   O6        1.0  0.9854559910084786  0.653429922923328  0.6416088927933159  1.0000
  O   O7        1.0  0.9854164864690914  0.27580803524485087  0.655287625436243  1.0000
  O   O8        1.0  0.8578525603877394  0.6478633626304113  0.6311892523295533  1.0000
  O   O9        1.0  0.8577981677942034  0.45210343690080984  0.826839396115743  1.0000
  O   O10       1.0  0.8578675064760635  0.46600446965428866  0.44921624441742636  1.0000
  O   O11       1.0  0.8578130563368586  0.2702429810900829  0.6448664522030225  1.0000
