data_image0
_chemical_formula_structural       NC9NC5H8C7F3H5C6BrH5Zn2C4O8
_chemical_formula_sum              "N2 C31 H18 F3 Br1 Zn2 O8"
_cell_length_a       17.807436237873137
_cell_length_b       9.27228830945605
_cell_length_c       10.302972455390005
_cell_angle_alpha    85.26210740254696
_cell_angle_beta     89.39215201277248
_cell_angle_gamma    87.81380667828488

_space_group_name_H-M_alt    "P 1"
_space_group_IT_number       1

loop_
  _space_group_symop_operation_xyz
  'x, y, z'

loop_
  _atom_site_type_symbol
  _atom_site_label
  _atom_site_symmetry_multiplicity
  _atom_site_fract_x
  _atom_site_fract_y
  _atom_site_fract_z
  _atom_site_occupancy
  N   N1        1.0  0.6993651542849247  0.5426780321185901  0.5504618456377188  1.0000
  C   C1        1.0  0.6389816764579795  0.5035602232898317  0.5396227132300919  1.0000
  C   C2        1.0  0.563871266702508  0.45490197698543366  0.5261400091352604  1.0000
  C   C3        1.0  0.546194004779353  0.3755157362491867  0.4215394371517409  1.0000
  C   C4        1.0  0.4732663126583434  0.3281483869029165  0.40836657041826285  1.0000
  C   C5        1.0  0.41696935306616156  0.35974760596976707  0.4997637781546063  1.0000
  C   C6        1.0  0.3394653494616429  0.3095360568480886  0.48584588824769503  1.0000
  C   C7        1.0  0.2768149234296916  0.400418321730357  0.5113553819000487  1.0000
  C   C8        1.0  0.203746103749301  0.3528252694511622  0.4981972369617329  1.0000
  C   C9        1.0  0.1400299821041069  0.44669931415647746  0.5240566590429465  1.0000
  N   N2        1.0  0.0888152424716576  0.5221675515106339  0.5448469382237586  1.0000
  C   C10       1.0  0.192745661147989  0.21406317471720884  0.4595055849989651  1.0000
  C   C11       1.0  0.25453879768415516  0.12316551129258427  0.43398777572485797  1.0000
  C   C12       1.0  0.3274904732084055  0.17031998212207844  0.44694548009691554  1.0000
  C   C13       1.0  0.4353351527912507  0.43968339668750445  0.6045809625738388  1.0000
  C   C14       1.0  0.5083168203280986  0.4868390993889569  0.617599209996738  1.0000
  H   H1        1.0  0.5887193435253404  0.3505210363633724  0.34996608768866366  1.0000
  H   H2        1.0  0.46066507953757946  0.2684742539160648  0.32574981338930176  1.0000
  H   H3        1.0  0.2847472260878657  0.5087627986884249  0.5397211546910248  1.0000
  H   H4        1.0  0.13647799893233858  0.1762278300522446  0.4490894115650628  1.0000
  H   H5        1.0  0.2459033956730872  0.01573268814595808  0.40441776588402734  1.0000
  H   H6        1.0  0.3745125374691755  0.09723610802834128  0.42824181280916646  1.0000
  H   H7        1.0  0.3935298193418444  0.4640788652958597  0.6774511583343041  1.0000
  H   H8        1.0  0.5214393260072746  0.5478700766479203  0.6991684004475667  1.0000
  C   C15       1.0  0.8963050697436051  0.10848154011262845  0.5496233501823369  1.0000
  C   C16       1.0  0.9320096707111744  0.18861084727586988  0.4465655409826512  1.0000
  C   C17       1.0  0.9602930727669191  0.12150506638721814  0.3390882708703298  1.0000
  C   C18       1.0  0.9525967841777586  0.972705700919002  0.3309006276053992  1.0000
  C   C19       1.0  0.91963338586669  0.8907495754836553  0.43557146023103166  1.0000
  C   C20       1.0  0.8918825808819689  0.9563526089292977  0.5456966728279768  1.0000
  C   C21       1.0  0.9850781022197866  0.8994538328970559  0.21639501483605453  1.0000
  F   F1        1.0  0.9844273131984869  0.994088097503802  0.10518871758395877  1.0000
  F   F2        1.0  0.9436974539329097  0.7812800597605466  0.1922436226936406  1.0000
  F   F3        1.0  0.05835737551834974  0.853037246422345  0.24345308385834843  1.0000
  H   H9        1.0  0.7699656292300818  0.19771182925366115  0.7849671755641259  1.0000
  H   H10       1.0  0.9367497297581845  0.304625480166171  0.4478405850178162  1.0000
  H   H11       1.0  0.9876740191813129  0.18654034169627767  0.2616535499810606  1.0000
  H   H12       1.0  0.9172322080474058  0.774437220929655  0.43268679105246693  1.0000
  H   H13       1.0  0.856885282781313  0.8285083532517804  0.860617246144021  1.0000
  C   C22       1.0  0.8940937924394676  0.5324170564386776  0.1664174499370472  1.0000
  C   C23       1.0  0.9167652064561149  0.38519614785442724  0.17572910107444928  1.0000
  C   C24       1.0  0.9280114929529606  0.3121666263431007  0.06341034698102899  1.0000
  C   C25       1.0  0.9167653334067798  0.3851960848368665  0.9406467089080186  1.0000
  C   C26       1.0  0.8940938279734297  0.5324170585169603  0.9289025314806407  1.0000
  C   C27       1.0  0.8828675633904167  0.6053165497382669  0.04244688196603463  1.0000
  Br  Br1       1.0  0.9588483680054353  0.11192075290345782  0.07773019217378563  1.0000
  H   H14       1.0  0.8855607864002444  0.5878298625224562  0.4902141711005956  1.0000
  H   H15       1.0  0.9257901694207333  0.32659020408266515  0.2699193737249026  1.0000
  H   H16       1.0  0.925790466107276  0.3265902368072695  0.8548384665904917  1.0000
  H   H17       1.0  0.8653824608029618  0.7188589618657152  0.03432732340398226  1.0000
  H   H18       1.0  0.8855597330928907  0.5878293760716716  0.5971805648511697  1.0000
  Zn  Zn1       1.0  0.8117520560508925  0.5367552983505819  0.5488490307905174  1.0000
  Zn  Zn2       1.0  0.976428383890736  0.5280785173717158  0.5464704806453538  1.0000
  C   C28       1.0  0.8941221511299347  0.5266659438898353  0.7848031996728987  1.0000
  C   C29       1.0  0.8940600775709096  0.538169598620748  0.3105164047775031  1.0000
  C   C30       1.0  0.8927146415998531  0.796087117797442  0.5412654797018761  1.0000
  C   C31       1.0  0.8954675399555426  0.26874669319498123  0.5540542028086448  1.0000
  O   O1        1.0  0.9565426036019  0.5368011129577688  0.35797471216654175  1.0000
  O   O2        1.0  0.9566251532592138  0.5214478644681018  0.7355392590812588  1.0000
  O   O3        1.0  0.9554877290669413  0.739008914082741  0.5388808323512366  1.0000
  O   O4        1.0  0.9576799715474233  0.31924007663121334  0.5546330423179704  1.0000
  O   O5        1.0  0.8305004121982482  0.7455937420536156  0.5406864699227474  1.0000
  O   O6        1.0  0.8316378273400121  0.5280344269196677  0.7373448193974972  1.0000
  O   O7        1.0  0.8315552779949891  0.5433876250987812  0.3597787118317195  1.0000
  O   O8        1.0  0.8326926459913047  0.3258265784466734  0.5564371393665886  1.0000
