data_image0
_chemical_formula_structural       NC12NC2H8C12SCH12C13NH9Zn2C4O8
_chemical_formula_sum              "N3 C44 H29 S1 Zn2 O8"
_cell_length_a       17.80743265337812
_cell_length_b       10.299776766347529
_cell_length_c       10.298528502251457
_cell_angle_alpha    85.54283687761513
_cell_angle_beta     91.53111058914057
_cell_angle_gamma    89.41689066054833

_space_group_name_H-M_alt    "P 1"
_space_group_IT_number       1

loop_
  _space_group_symop_operation_xyz
  'x, y, z'

loop_
  _atom_site_type_symbol
  _atom_site_label
  _atom_site_symmetry_multiplicity
  _atom_site_fract_x
  _atom_site_fract_y
  _atom_site_fract_z
  _atom_site_occupancy
  N   N1        1.0  0.7071894414824442  0.4071002567464165  0.6012265753820389  1.0000
  C   C1        1.0  0.6563655534144289  0.43667973175011715  0.5325213546034826  1.0000
  C   C2        1.0  0.5931356220938744  0.4734744504391648  0.4470607088249775  1.0000
  C   C3        1.0  0.6048548768483759  0.527533243574061  0.320428992447306  1.0000
  C   C4        1.0  0.5435325294869922  0.5628236537283087  0.2373645391316508  1.0000
  C   C5        1.0  0.47033658895319674  0.544318933943239  0.28027183708912307  1.0000
  C   C6        1.0  0.4576405733363418  0.4901411965501179  0.40737174298935863  1.0000
  C   C7        1.0  0.5198202365276747  0.4548540452849703  0.4904196829270739  1.0000
  C   C8        1.0  0.3798765744930399  0.47052148858716597  0.4531396082117587  1.0000
  C   C9        1.0  0.361083222204382  0.4976692936671877  0.5801987945028779  1.0000
  C   C10       1.0  0.2878573271286635  0.47920613470898554  0.6231466612617953  1.0000
  C   C11       1.0  0.23248184770168115  0.4333406471695518  0.5398733928015561  1.0000
  C   C12       1.0  0.15711942649657862  0.414324242511472  0.5842223205833823  1.0000
  N   N2        1.0  0.0965333767174005  0.399036332130555  0.6198758076089685  1.0000
  C   C13       1.0  0.2505837290597669  0.4060237665836072  0.41335722942752207  1.0000
  C   C14       1.0  0.3237567707345299  0.42450178815554906  0.370153448213274  1.0000
  H   H1        1.0  0.661318353685608  0.5423673193805867  0.2859887544881312  1.0000
  H   H2        1.0  0.5527243592332108  0.604949987113572  0.13957626207868445  1.0000
  H   H3        1.0  0.4236927840512721  0.5739740796318307  0.2146749044497025  1.0000
  H   H4        1.0  0.5113270571784914  0.4113424483076509  0.5880834530191846  1.0000
  H   H5        1.0  0.4027513850321627  0.5348285880841663  0.6457803517305035  1.0000
  H   H6        1.0  0.27440809110807923  0.5010220134107768  0.7211670106845873  1.0000
  H   H7        1.0  0.208198437512554  0.37013162285807866  0.3481887155253064  1.0000
  H   H8        1.0  0.33667790113271506  0.4011502789712562  0.2724364144828182  1.0000
  C   C15       1.0  0.9019358408493132  0.021701627203303486  0.6105531422239108  1.0000
  C   C16       1.0  0.9064464470517128  0.010000390550576107  0.7472994501771577  1.0000
  C   C17       1.0  0.9086596761203733  0.8869341560733173  0.8165917875095917  1.0000
  C   C18       1.0  0.9063027940976228  0.7747155843116749  0.7473077614916988  1.0000
  C   C19       1.0  0.9017941943646113  0.7844248321494919  0.6105608001744578  1.0000
  C   C20       1.0  0.899635533115744  0.9083559301739071  0.542948941582673  1.0000
  C   C21       1.0  0.9134231093794438  0.8756196455818658  0.9612535555503929  1.0000
  C   C22       1.0  0.8704246571263392  0.7830248045242689  0.03324553475382863  1.0000
  C   C23       1.0  0.8749301681579346  0.7726105157295767  0.16938693714936404  1.0000
  C   C24       1.0  0.9222467698791895  0.8545157707691786  0.23533427472390708  1.0000
  C   C25       1.0  0.9654244648226831  0.9465326494984656  0.1647241104484551  1.0000
  C   C26       1.0  0.9610291145501325  0.9572945489737854  0.028577568393697295  1.0000
  S   S1        1.0  0.9281108056222146  0.8406905519208931  0.4100263927004239  1.0000
  C   C27       1.0  0.8526178649566596  0.9583093596738195  0.4259414099847401  1.0000
  H   H9        1.0  0.9002466511164708  0.35361319934228946  0.5584480071685279  1.0000
  H   H10       1.0  0.9072128594617017  0.09679773307081117  0.8003008384841709  1.0000
  H   H11       1.0  0.9090280627539129  0.6796276144668834  0.8002068172120513  1.0000
  H   H12       1.0  0.896156305870936  0.9166144377942504  0.43745500403172133  1.0000
  H   H13       1.0  0.9000387060972258  0.4606715017036246  0.5584571558074682  1.0000
  H   H14       1.0  0.8326075542729093  0.7198598676340746  0.9843143582623546  1.0000
  H   H15       1.0  0.8413402512190311  0.701225144950583  0.22350618759663166  1.0000
  H   H16       1.0  0.002441955524948858  0.009769487457739203  0.21520611123812602  1.0000
  H   H17       1.0  0.995567177235732  0.02829085508286178  0.9759169452441205  1.0000
  H   H18       1.0  0.8676585636533068  0.05434402832240771  0.3777783295726823  1.0000
  H   H19       1.0  0.843909692395236  0.9691336187208004  0.5308161906859916  1.0000
  H   H20       1.0  0.7997550203789143  0.9238859263105278  0.38128219556592885  1.0000
  C   C28       1.0  0.9018756609969252  0.4031894854577833  0.22914059728067254  1.0000
  C   C29       1.0  0.8237696860008877  0.42466891182970684  0.22290967850249885  1.0000
  C   C30       1.0  0.7842005348995214  0.4354123189291421  0.10260630090344924  1.0000
  C   C31       1.0  0.823747308956938  0.42440451875476376  0.9876488980389161  1.0000
  C   C32       1.0  0.9018543509631647  0.4029369497998348  0.9919732912080184  1.0000
  C   C33       1.0  0.9404183836306189  0.39246413835251026  0.11316202014833454  1.0000
  C   C34       1.0  0.7016268106140401  0.45811466988231525  0.09702663818498533  1.0000
  C   C35       1.0  0.6684407667705854  0.5467321014109277  0.17635477086464643  1.0000
  C   C36       1.0  0.5907142135416567  0.5680547810858261  0.1709831594516937  1.0000
  C   C37       1.0  0.545139450186955  0.5011408888229416  0.08644983677584084  1.0000
  C   C38       1.0  0.577583971141252  0.4127751471613683  0.0071901976154509165  1.0000
  C   C39       1.0  0.6553025225800667  0.3913582696096339  0.012324813732976784  1.0000
  C   C40       1.0  0.4651198730146068  0.5231433041427114  0.08104042200470005  1.0000
  N   N3        1.0  0.4007895287834345  0.5408318853886891  0.07669165232136677  1.0000
  H   H21       1.0  0.04940324003545715  0.3617947401945958  0.4482989349589891  1.0000
  H   H22       1.0  0.7934281731987332  0.4313050905524518  0.31197208671798626  1.0000
  H   H23       1.0  0.7936877668596551  0.43437421106651186  0.8945052879934242  1.0000
  H   H24       1.0  0.0006161674642033449  0.37591424201407153  0.11722943067193725  1.0000
  H   H25       1.0  0.04952044225886154  0.36318210049853356  0.7927603541555128  1.0000
  H   H26       1.0  0.7026987532910456  0.6007902543680779  0.2412997527778031  1.0000
  H   H27       1.0  0.5662101143530455  0.6369518677065997  0.23251777413541896  1.0000
  H   H28       1.0  0.542806466737022  0.36017789994285004  0.9416486300261357  1.0000
  H   H29       1.0  0.6790692075814831  0.3213462803656317  0.95130163632649  1.0000
  Zn  Zn1       1.0  0.8195456946728618  0.40476971255507005  0.6066158287862942  1.0000
  Zn  Zn2       1.0  0.9841771227047436  0.4013562794202654  0.6144971484676371  1.0000
  C   C41       1.0  0.901857661688849  0.39781109802175507  0.8477814701575471  1.0000
  C   C42       1.0  0.9018669531509077  0.4083164952464271  0.37333172065886105  1.0000
  C   C43       1.0  0.9018172261570981  0.6402557105864208  0.6053833328662002  1.0000
  C   C44       1.0  0.9019073327933398  0.16587032353050615  0.6157299244924912  1.0000
  O   O1        1.0  0.9643408007248089  0.4087361207749109  0.42471449855527577  1.0000
  O   O2        1.0  0.9643352588716274  0.3947997761326324  0.8023800576355951  1.0000
  O   O3        1.0  0.9643017644139011  0.5905768839245065  0.6066418064596987  1.0000
  O   O4        1.0  0.9643742390059759  0.2129590234702119  0.6204526496551219  1.0000
  O   O5        1.0  0.8393485221910026  0.593166969671377  0.6006603249024698  1.0000
  O   O6        1.0  0.8393820163574214  0.3973914221970112  0.7963985068397441  1.0000
  O   O7        1.0  0.8393875583126016  0.411327722099464  0.4187313861664177  1.0000
  O   O8        1.0  0.8394209965897012  0.2155506154738429  0.6144696346459753  1.0000
