data_image0
_chemical_formula_structural       NC10NC3NCH9C12SCH12C12OCH12Zn2C4O8
_chemical_formula_sum              "N3 C44 H33 S1 O9 Zn2"
_cell_length_a       19.437513618241372
_cell_length_b       10.299776766347529
_cell_length_c       10.299794127170987
_cell_angle_alpha    85.57877721711455
_cell_angle_beta     90.34079441948666
_cell_angle_gamma    89.50378728869872

_space_group_name_H-M_alt    "P 1"
_space_group_IT_number       1

loop_
  _space_group_symop_operation_xyz
  'x, y, z'

loop_
  _atom_site_type_symbol
  _atom_site_label
  _atom_site_symmetry_multiplicity
  _atom_site_fract_x
  _atom_site_fract_y
  _atom_site_fract_z
  _atom_site_occupancy
  N   N1        1.0  0.6476915312537614  0.41005291318635684  0.5758439905396096  1.0000
  C   C1        1.0  0.588755380443072  0.4270620021244582  0.5728699239284043  1.0000
  C   C2        1.0  0.5153113907225451  0.4483133070259031  0.5691783422717382  1.0000
  C   C3        1.0  0.4735663222188351  0.3471222007782536  0.5575088332863307  1.0000
  C   C4        1.0  0.3976748044880919  0.3571851487252886  0.5502888881449535  1.0000
  C   C5        1.0  0.3580855823179344  0.4380475233252337  0.6160369682307902  1.0000
  C   C6        1.0  0.2819049718752362  0.42943746309019337  0.6075923392232088  1.0000
  C   C7        1.0  0.2487895598317781  0.30809573078976343  0.6122226010887739  1.0000
  C   C8        1.0  0.177056082765132  0.3017224374284686  0.6050541954033477  1.0000
  C   C9        1.0  0.1374674651201346  0.4162182807545731  0.5936176926397261  1.0000
  C   C10       1.0  0.0636195747386956  0.4095067745823241  0.5862811673556823  1.0000
  N   N2        1.0  0.0042509687939486  0.40411131377980913  0.5803830594745578  1.0000
  C   C11       1.0  0.1698663214172428  0.5372496140191229  0.5897326395372144  1.0000
  C   C12       1.0  0.24158415953622095  0.5438769085260189  0.5969630908026189  1.0000
  C   C13       1.0  0.3867526046385143  0.5303509326699336  0.7059625822177045  1.0000
  N   N3        1.0  0.4437275140328744  0.5935579587706596  0.6855660498937144  1.0000
  C   C14       1.0  0.4875711085072925  0.5842722169151826  0.5724627277851526  1.0000
  H   H1        1.0  0.4959661393369591  0.25206486834652186  0.5453780780049169  1.0000
  H   H2        1.0  0.3729727619887391  0.28766133881130984  0.4919660537594743  1.0000
  H   H3        1.0  0.278254584117685  0.21818777251542087  0.6232333751434256  1.0000
  H   H4        1.0  0.1524780021095361  0.2074985828377003  0.6089311643966273  1.0000
  H   H5        1.0  0.1397160958067989  0.6265031781859767  0.5810338367922201  1.0000
  H   H6        1.0  0.26568065058535  0.6385135525328998  0.5930707066436061  1.0000
  H   H7        1.0  0.35674505728118233  0.5507545213601726  0.790327504819379  1.0000
  H   H8        1.0  0.5303120615169395  0.6545847459005584  0.5782333409626852  1.0000
  H   H9        1.0  0.4579004260920768  0.6123608079321483  0.481824332644968  1.0000
  C   C15       1.0  0.8260394185972305  0.025715812920021897  0.5781128169195715  1.0000
  C   C16       1.0  0.8301653912149437  0.014125133825626742  0.7146721721901199  1.0000
  C   C17       1.0  0.8321898137867825  0.8911145288535434  0.7838723995123512  1.0000
  C   C18       1.0  0.8300338339414417  0.7788395541245922  0.7146856869712321  1.0000
  C   C19       1.0  0.8259096988659412  0.7884382548690775  0.5781256057498081  1.0000
  C   C20       1.0  0.8239351900202987  0.9123150773541214  0.5106035909754392  1.0000
  C   C21       1.0  0.8365470452544803  0.8799169306561321  0.9283366927514984  1.0000
  C   C22       1.0  0.797166639168199  0.7871343413018976  0.0018742268455993435  1.0000
  C   C23       1.0  0.8012879670000362  0.7768302015465949  0.13782896522180887  1.0000
  C   C24       1.0  0.8446180522345965  0.8590334704154469  0.20205056318338385  1.0000
  C   C25       1.0  0.8841625594954716  0.9512399391648452  0.12988811192510852  1.0000
  C   C26       1.0  0.8801421167650954  0.9618922835098251  0.9939242433812937  1.0000
  S   S1        1.0  0.8499821521406907  0.8453500395146493  0.3765001631752002  1.0000
  C   C27       1.0  0.7808453629052761  0.9625696461891297  0.39514773585983803  1.0000
  H   H10       1.0  0.8244943029749785  0.3575854187154195  0.5260778481940191  1.0000
  H   H11       1.0  0.8308653982600186  0.10096000497248436  0.7676366744670182  1.0000
  H   H12       1.0  0.8325277597595914  0.6837996667876616  0.7674769001336712  1.0000
  H   H13       1.0  0.8207526479798978  0.9204882973189226  0.4052538608549667  1.0000
  H   H14       1.0  0.8243038671755625  0.4646425996356315  0.5260945296135355  1.0000
  H   H15       1.0  0.7625355680630221  0.7237335990700897  0.9543216729591792  1.0000
  H   H16       1.0  0.7705245027002962  0.7052968288797354  0.19315595080106196  1.0000
  H   H17       1.0  0.9180612932377047  0.014709224560125026  0.17902019523928203  1.0000
  H   H18       1.0  0.9117738388305034  0.03304264956957637  0.9400212805650887  1.0000
  H   H19       1.0  0.79462129388663  0.05865551799379488  0.3464479790984125  1.0000
  H   H20       1.0  0.7728667396010244  0.9734127391132831  0.5003199947996704  1.0000
  H   H21       1.0  0.732435292100682  0.9278315394320439  0.35241155305470306  1.0000
  C   C28       1.0  0.8259977726656661  0.4069631753690155  0.19676806118180257  1.0000
  C   C29       1.0  0.7585885210483247  0.3589643938599443  0.1987156405187358  1.0000
  C   C30       1.0  0.7244127831118067  0.33474593502477323  0.08255538738492585  1.0000
  C   C31       1.0  0.7585417085241395  0.3591916379765148  0.9634101572249425  1.0000
  C   C32       1.0  0.8259513452815156  0.4071909204896086  0.9594703209656053  1.0000
  C   C33       1.0  0.859302610630368  0.4308050214137787  0.07666415941744265  1.0000
  C   C34       1.0  0.65309958438958  0.28395881534542244  0.08567053784033929  1.0000
  C   C35       1.0  0.6038381704292797  0.3334461987259816  0.9938960264219784  1.0000
  C   C36       1.0  0.5368148538729487  0.2856336282619796  0.9970931409670984  1.0000
  C   C37       1.0  0.5180786449243598  0.18801312409788398  0.09153947416750396  1.0000
  C   C38       1.0  0.5666615482402109  0.13713246751034291  0.1841679037379562  1.0000
  C   C39       1.0  0.6337782791366761  0.1855830196404045  0.18052061474342795  1.0000
  O   O1        1.0  0.5504841219826084  0.03883036394169003  0.28078175500762015  1.0000
  C   C40       1.0  0.4845460849480519  0.9806563065227891  0.2959784332374302  1.0000
  H   H22       1.0  0.8516927495950163  0.42519430674988534  0.523483623808273  1.0000
  H   H23       1.0  0.7321596609389699  0.34197617941689984  0.29065588871376535  1.0000
  H   H24       1.0  0.732754664806098  0.3390271525857428  0.8737499642662327  1.0000
  H   H25       1.0  0.9113063044712817  0.4678332185688687  0.07439329614269297  1.0000
  H   H26       1.0  0.851623444757967  0.4255422265020792  0.6305115251994318  1.0000
  H   H27       1.0  0.6169094255767522  0.4102935509632075  0.9207451775382172  1.0000
  H   H28       1.0  0.49919204999106104  0.324655495247281  0.9262770421913684  1.0000
  H   H29       1.0  0.4658168478150043  0.15285023830168742  0.09170194101340279  1.0000
  H   H30       1.0  0.6710981045780081  0.14481620303292764  0.25115905719808485  1.0000
  H   H31       1.0  0.4703737728213934  0.9324373169981097  0.20693656861126541  1.0000
  H   H32       1.0  0.4863266423944795  0.9061517130038912  0.37967158371093657  1.0000
  H   H33       1.0  0.4453479090059249  0.05556693647005195  0.31575789424974854  1.0000
  Zn  Zn1       1.0  0.7505868884649639  0.40833480899391766  0.5771613763308925  1.0000
  Zn  Zn2       1.0  0.9013556189576449  0.4058187516844572  0.5790763428798513  1.0000
  C   C41       1.0  0.8259594464675457  0.4019742389699222  0.815303170603884  1.0000
  C   C42       1.0  0.8259847070584149  0.4121809328792301  0.34093469700617085  1.0000
  C   C43       1.0  0.8259309741200311  0.6442659979825942  0.5729481945465462  1.0000
  C   C44       1.0  0.8260131282202955  0.1698876144542456  0.5832897416193514  1.0000
  O   O2        1.0  0.8831962705691552  0.41297156362673754  0.39004505669787765  1.0000
  O   O3        1.0  0.8831778610392167  0.3992729991149515  0.7676458523685195  1.0000
  O   O4        1.0  0.8831540978779394  0.59492667198994  0.5719424847264842  1.0000
  O   O5        1.0  0.8832199822876275  0.21731790087139297  0.5857483263164911  1.0000
  O   O6        1.0  0.768722473685013  0.5968356606670009  0.5704893922339376  1.0000
  O   O7        1.0  0.7687462365819563  0.4011835480643431  0.7661926906598158  1.0000
  O   O8        1.0  0.7687646462604407  0.4148820668535445  0.38859033366108936  1.0000
  O   O9        1.0  0.7687883579717502  0.21922839483857492  0.5842937006428099  1.0000
