data_image0
_chemical_formula_structural       NC8NC6H8C12NCOCH13C13OH12Zn2C4O8
_chemical_formula_sum              "N3 C45 H33 O10 Zn2"
_cell_length_a       17.457602349358154
_cell_length_b       10.299155265289647
_cell_length_c       10.299153481560891
_cell_angle_alpha    85.56585442832863
_cell_angle_beta     92.89209155736368
_cell_angle_gamma    91.66712233072684

_space_group_name_H-M_alt    "P 1"
_space_group_IT_number       1

loop_
  _space_group_symop_operation_xyz
  'x, y, z'

loop_
  _atom_site_type_symbol
  _atom_site_label
  _atom_site_symmetry_multiplicity
  _atom_site_fract_x
  _atom_site_fract_y
  _atom_site_fract_z
  _atom_site_occupancy
  N   N1        1.0  0.7218612353645273  0.4523796776827924  0.6260146471276549  1.0000
  C   C1        1.0  0.6607917908267787  0.4064475910896088  0.6154131239828156  1.0000
  C   C2        1.0  0.5848188191523731  0.34931379382548133  0.6022343695853862  1.0000
  C   C3        1.0  0.5262940995420688  0.38950737830544147  0.6771212401717068  1.0000
  C   C4        1.0  0.451758840648353  0.3344922095627707  0.6645562718811904  1.0000
  C   C5        1.0  0.3896434842463558  0.37693080857329186  0.7438643483151361  1.0000
  C   C6        1.0  0.3150830386882311  0.395378439884583  0.6880936538891822  1.0000
  C   C7        1.0  0.2565583762179749  0.43538813036383095  0.7630885387254296  1.0000
  C   C8        1.0  0.18055925653582  0.4544407819852878  0.7051021381612792  1.0000
  N   N2        1.0  0.1194688822786218  0.46975273387481065  0.6584812251681516  1.0000
  C   C9        1.0  0.2721020297822057  0.4571935446926614  0.8943625715067034  1.0000
  C   C10       1.0  0.34587775084594397  0.4391350749477798  0.9505207510736755  1.0000
  C   C11       1.0  0.4043908469822464  0.39930562883442433  0.8759835420870217  1.0000
  C   C12       1.0  0.4370368519711861  0.23860543524135136  0.575671691449267  1.0000
  C   C13       1.0  0.4955498598853891  0.19869070399295286  0.5011847462453964  1.0000
  C   C14       1.0  0.5693004228459698  0.253818470548554  0.5142996424493571  1.0000
  H   H1        1.0  0.5386327472432008  0.46473226778040333  0.7437299089091085  1.0000
  H   H2        1.0  0.30272378149207463  0.38036728835656497  0.5860713831534121  1.0000
  H   H3        1.0  0.22724427848147394  0.48810119976560173  0.9531901271204868  1.0000
  H   H4        1.0  0.3577228824602327  0.4557038325052327  0.05216926161613  1.0000
  H   H5        1.0  0.4608877938801891  0.3843310069916779  0.9220958473585592  1.0000
  H   H6        1.0  0.3805605466899447  0.193263037430478  0.5650338648443554  1.0000
  H   H7        1.0  0.4837245640868661  0.12458187224345219  0.43337737529427867  1.0000
  H   H8        1.0  0.6141585018011507  0.22204126655616863  0.45598349820383377  1.0000
  C   C15       1.0  0.920754435642167  0.07967265336461837  0.6423739408645543  1.0000
  C   C16       1.0  0.9076255805965869  0.08875963356878058  0.5063761243332607  1.0000
  C   C17       1.0  0.9008946503913413  0.9762259588159408  0.43729857311590536  1.0000
  C   C18       1.0  0.907442084307853  0.8534917563148738  0.5060533548044992  1.0000
  C   C19       1.0  0.9205830440374639  0.8424500950610121  0.642133750667601  1.0000
  C   C20       1.0  0.927161732306003  0.9560541521086949  0.7094565546562401  1.0000
  C   C21       1.0  0.8870068541286689  0.986812597335464  0.2934293822076939  1.0000
  C   C22       1.0  0.9259013893709918  0.08259914488426734  0.21518735183374016  1.0000
  C   C23       1.0  0.9128383709030623  0.09243126774348753  0.0797973727867145  1.0000
  C   C24       1.0  0.8610966391592549  0.005811838306414074  0.01982160416413481  1.0000
  C   C25       1.0  0.821264949913318  0.9118006084852583  0.09791895164985509  1.0000
  C   C26       1.0  0.8343559049157491  0.9017136759401461  0.23327387621893036  1.0000
  N   N3        1.0  0.8455641065886441  0.015333917843718625  0.8809916349544582  1.0000
  C   C27       1.0  0.9015664538715242  0.054688658243211785  0.7873463345702434  1.0000
  O   O1        1.0  0.9719541667109777  0.06030663510988954  0.8209523689440519  1.0000
  C   C28       1.0  0.8770670370192803  0.08002439604837885  0.6468053391090343  1.0000
  H   H9        1.0  0.925828167979858  0.40365463779465416  0.6946807684725611  1.0000
  H   H10       1.0  0.9015466272200375  0.18352395512597663  0.4540698822165552  1.0000
  H   H11       1.0  0.9033059444979034  0.7664965488091141  0.4530869380703244  1.0000
  H   H12       1.0  0.9372908752437596  0.9483304219950007  0.8143542780060864  1.0000
  H   H13       1.0  0.9458452973158146  0.6143462536820747  0.8988850711934928  1.0000
  H   H14       1.0  0.966876011423671  0.14944958369072014  0.2586256232378148  1.0000
  H   H15       1.0  0.9422606509964967  0.16915504013587035  0.022619146653511724  1.0000
  H   H16       1.0  0.7802165507055536  0.8456507426267224  0.05360761623052612  1.0000
  H   H17       1.0  0.8024685140122588  0.82849878519791  0.2910837652903149  1.0000
  H   H18       1.0  0.7915217996927778  0.9840949274048807  0.8455052403534187  1.0000
  H   H19       1.0  0.8216850906945665  0.13104890904388866  0.6378294772304791  1.0000
  H   H20       1.0  0.8699598453848026  0.9860909867661259  0.6010007348960786  1.0000
  H   H21       1.0  0.9207330572603983  0.1420073937980022  0.5949753465322423  1.0000
  C   C29       1.0  0.9206028693074855  0.46091103597980587  0.26087596822993797  1.0000
  C   C30       1.0  0.8412881215220924  0.43306346919616834  0.2550782492503181  1.0000
  C   C31       1.0  0.8012129987866037  0.41911302469541156  0.1349824379445519  1.0000
  C   C32       1.0  0.8414690601070214  0.4333886971903642  0.019784962058833955  1.0000
  C   C33       1.0  0.9207346008483053  0.4612116780852764  0.023631722323843363  1.0000
  C   C34       1.0  0.95983867047615  0.47480678099297746  0.14467294643658124  1.0000
  C   C35       1.0  0.7173577470931752  0.3896843711801832  0.12982588779656923  1.0000
  C   C36       1.0  0.6688206014023977  0.45280511396278755  0.03317562287944953  1.0000
  C   C37       1.0  0.5899078495351578  0.4251549594578956  0.028400945802168343  1.0000
  C   C38       1.0  0.5582042268133423  0.33305085323243677  0.1192990994331029  1.0000
  C   C39       1.0  0.6062264425498163  0.2710039709004335  0.21682552304252067  1.0000
  C   C40       1.0  0.6851428406678489  0.29862463517480586  0.221778656305458  1.0000
  C   C41       1.0  0.4731889265693884  0.3060478276302061  0.11628050040182147  1.0000
  O   O2        1.0  0.4387098829026505  0.3921357418509459  0.19294632370976572  1.0000
  H   H22       1.0  0.07021562873810017  0.514300122658305  0.47903959064665247  1.0000
  H   H23       1.0  0.8103588564608741  0.4239477779056826  0.34403060932010177  1.0000
  H   H24       1.0  0.8110318944746315  0.4210057044730775  0.9271237800711578  1.0000
  H   H25       1.0  0.0209781379613021  0.49627110640322813  0.14835585341284308  1.0000
  H   H26       1.0  0.9512127464726924  0.4719988530221517  0.6976284138214388  1.0000
  H   H27       1.0  0.6917383770655238  0.5250678783778706  0.9624681719857286  1.0000
  H   H28       1.0  0.5534951973955881  0.4758480651424817  0.9539313402735878  1.0000
  H   H29       1.0  0.582600725645679  0.20091683083247935  0.28891439330229796  1.0000
  H   H30       1.0  0.721094447449057  0.2477108697671131  0.296733888193617  1.0000
  H   H31       1.0  0.46103520076261123  0.203721956056657  0.15413716261496213  1.0000
  H   H32       1.0  0.448901890740328  0.3183528862269076  0.014162522691809842  1.0000
  H   H33       1.0  0.3829426167011835  0.37034404300798873  0.18769501550609102  1.0000
  Zn  Zn1       1.0  0.8366022155759179  0.4573896864479594  0.6353912999750138  1.0000
  Zn  Zn2       1.0  0.004727892046429982  0.4647320807888051  0.6491152084512317  1.0000
  C   C42       1.0  0.9207091373063239  0.4559807598395089  0.8794560530895918  1.0000
  C   C43       1.0  0.9206228058969268  0.46614272635227105  0.4050507321547685  1.0000
  C   C44       1.0  0.92061057675581  0.6982666806957643  0.6370035468964224  1.0000
  C   C45       1.0  0.920721309440522  0.22385524261389755  0.6475033033965123  1.0000
  O   O3        1.0  0.9844323160980344  0.47067926371093516  0.45864525350874397  1.0000
  O   O4        1.0  0.984503125538616  0.4570159499605897  0.8362772871731192  1.0000
  O   O5        1.0  0.9844226767882958  0.6526648581459482  0.6404951023958192  1.0000
  O   O6        1.0  0.9845127074595466  0.27503036227255917  0.6544273362231203  1.0000
  O   O7        1.0  0.8568173427897575  0.6470914024600176  0.6300791675129971  1.0000
  O   O8        1.0  0.8568977911739526  0.45144405465258863  0.8258612825515954  1.0000
  O   O9        1.0  0.856826981524935  0.4651073225308142  0.4482276874682267  1.0000
  O   O10       1.0  0.8569073729022115  0.26945841184126795  0.6440098675553991  1.0000
