data_image0
_chemical_formula_structural       NC8NC6H8C12NCOCH13C12NCOCH13Zn2C4O8
_chemical_formula_sum              "N4 C46 H34 O10 Zn2"
_cell_length_a       17.457602349358154
_cell_length_b       10.299155265289647
_cell_length_c       10.299158637457994
_cell_angle_alpha    85.56442242627145
_cell_angle_beta     92.85709877509845
_cell_angle_gamma    91.66712233072684

_space_group_name_H-M_alt    "P 1"
_space_group_IT_number       1

loop_
  _space_group_symop_operation_xyz
  'x, y, z'

loop_
  _atom_site_type_symbol
  _atom_site_label
  _atom_site_symmetry_multiplicity
  _atom_site_fract_x
  _atom_site_fract_y
  _atom_site_fract_z
  _atom_site_occupancy
  N   N1        1.0  0.722357740885056  0.45243546902290177  0.6260532273087727  1.0000
  C   C1        1.0  0.6612921273304808  0.4065038129096952  0.6154520018444594  1.0000
  C   C2        1.0  0.585323917951611  0.3493705507752676  0.60227361749372  1.0000
  C   C3        1.0  0.5267721371032932  0.3895610944376109  0.6771583853290728  1.0000
  C   C4        1.0  0.4522414187063943  0.3345464359015571  0.6645937698507252  1.0000
  C   C5        1.0  0.3900974034124449  0.3769818145692583  0.743899619390515  1.0000
  C   C6        1.0  0.3155571112406777  0.3954317104765832  0.6881304909517725  1.0000
  C   C7        1.0  0.257005348500208  0.43543835575224343  0.763123270004116  1.0000
  C   C8        1.0  0.1810271828754856  0.45449336193955414  0.7051384976420658  1.0000
  N   N2        1.0  0.119953655625153  0.46980720689380817  0.6585188937191282  1.0000
  C   C9        1.0  0.2725015646722993  0.45723843963545074  0.8943936167373914  1.0000
  C   C10       1.0  0.3462569923274363  0.43917768956051395  0.9505502194369431  1.0000
  C   C11       1.0  0.40479702334748363  0.3993512700665969  0.8760151033830976  1.0000
  C   C12       1.0  0.4375515495018127  0.23866327078153637  0.575711685211937  1.0000
  C   C13       1.0  0.4960914741363606  0.1987515641115909  0.5012268315295159  1.0000
  C   C14       1.0  0.5698372978773035  0.25387879813048553  0.5143413594798634  1.0000
  H   H1        1.0  0.5390867149905263  0.4647832792353468  0.7437651837594157  1.0000
  H   H2        1.0  0.3032347209736566  0.38042470161223596  0.5861110849027877  1.0000
  H   H3        1.0  0.22762255535301554  0.4881437059870293  0.953219520530254  1.0000
  H   H4        1.0  0.3580653920751645  0.4557423196310093  0.05219587578743767  1.0000
  H   H5        1.0  0.4612773070298513  0.38437477581138113  0.922126113865658  1.0000
  H   H6        1.0  0.3810790883224206  0.19332130492475996  0.5650741573069178  1.0000
  H   H7        1.0  0.4842906813166644  0.12464548571319911  0.4334213645438567  1.0000
  H   H8        1.0  0.6147164500466152  0.22210396209335603  0.4560268526953237  1.0000
  C   C15       1.0  0.9212450295424333  0.07972778042768924  0.6424120616925106  1.0000
  C   C16       1.0  0.9081653188829607  0.0888202828889999  0.5064180638485001  1.0000
  C   C17       1.0  0.901459350650892  0.9762894130635527  0.43734245226203705  1.0000
  C   C18       1.0  0.9079819392307342  0.8535524187413058  0.5060953033827946  1.0000
  C   C19       1.0  0.9210737247332396  0.8425052318771222  0.642171878239866  1.0000
  C   C20       1.0  0.9276280851268363  0.9561065552497722  0.7094927918692187  1.0000
  C   C21       1.0  0.8876235431866231  0.9868818934611895  0.2934773010616958  1.0000
  C   C22       1.0  0.9265463520928078  0.0826716180654965  0.2152374676483546  1.0000
  C   C23       1.0  0.9135322583618709  0.09250923850032944  0.0798512902211217  1.0000
  C   C24       1.0  0.8618121995566848  0.005892244408362446  0.01987720566017459  1.0000
  C   C25       1.0  0.8219522889297236  0.9118778434066217  0.09797236024783795  1.0000
  C   C26       1.0  0.8349943318625035  0.9017854147093007  0.23332348418141557  1.0000
  N   N3        1.0  0.8463298348033532  0.015419961203745336  0.8810511346618912  1.0000
  C   C27       1.0  0.9023660219001115  0.05477850411597429  0.7874084637472283  1.0000
  O   O1        1.0  0.9727415908098246  0.0603951163933647  0.8210135544960626  1.0000
  C   C28       1.0  0.8779173911642997  0.08011994865626848  0.6468714145413759  1.0000
  H   H9        1.0  0.926299860202159  0.4037076409136793  0.6947174205753388  1.0000
  H   H10       1.0  0.9021052669728024  0.18358672836646694  0.4541132904405327  1.0000
  H   H11       1.0  0.9038649394489197  0.7665593619625273  0.4531303738944237  1.0000
  H   H12       1.0  0.9377193220573524  0.9483785657132628  0.8143875697923493  1.0000
  H   H13       1.0  0.9462431979482675  0.6143909649865759  0.8989159894367593  1.0000
  H   H14       1.0  0.9675052772230206  0.14952029303991976  0.25867451934773955  1.0000
  H   H15       1.0  0.9429752004695473  0.16923533264225243  0.0226746695972615  1.0000
  H   H16       1.0  0.7809199021362193  0.8457297768313023  0.05366226904799287  1.0000
  H   H17       1.0  0.8030860506860529  0.8285681765685453  0.2911317500069728  1.0000
  H   H18       1.0  0.7923003513271736  0.9841824117071315  0.8455657364845237  1.0000
  H   H19       1.0  0.8225386883712329  0.13114482612099287  0.6378958046963503  1.0000
  H   H20       1.0  0.8708267515540558  0.9861883992921338  0.6010680964774493  1.0000
  H   H21       1.0  0.9216021407735218  0.14210505098782034  0.5950428773006964  1.0000
  C   C29       1.0  0.9212313219186089  0.46098165395265855  0.26092480115234973  1.0000
  C   C30       1.0  0.9229831321723229  0.5977716784764162  0.24971376282580326  1.0000
  C   C31       1.0  0.9238110796530942  0.6672633490513455  0.12686701823817992  1.0000
  C   C32       1.0  0.9228361874261712  0.5981251548577622  0.014390178762775374  1.0000
  C   C33       1.0  0.9210874076213161  0.4612513475754023  0.023659183271226958  1.0000
  C   C34       1.0  0.9202990972546427  0.39352134935484084  0.14731528852696285  1.0000
  C   C35       1.0  0.925665199327192  0.8119704497445659  0.11598072901196432  1.0000
  C   C36       1.0  0.9727378603722983  0.881866118300378  0.20237171052919578  1.0000
  C   C37       1.0  0.9744889371532602  0.018043405092979636  0.19199679149820836  1.0000
  C   C38       1.0  0.9296885945041511  0.08707667203148928  0.09416801649587159  1.0000
  C   C39       1.0  0.8817022196725312  0.01750149660441558  0.009485398250884014  1.0000
  C   C40       1.0  0.8799826337413214  0.8813534972414414  0.019601893531386194  1.0000
  N   N4        1.0  0.9293641583334974  0.22711894523189802  0.08286461682974844  1.0000
  C   C41       1.0  0.9950766763823704  0.3089838444610207  0.11143851053860843  1.0000
  O   O2        1.0  0.06123369147298785  0.2624580036528741  0.1253713432247634  1.0000
  C   C42       1.0  0.9860451594025631  0.45241514654213244  0.1152609550906123  1.0000
  H   H22       1.0  0.9205815368323945  0.4083655476276  0.5927147826006505  1.0000
  H   H23       1.0  0.9226358980934223  0.6505777048197479  0.3366206018797788  1.0000
  H   H24       1.0  0.9244875153547374  0.6512148719795441  0.9195376885401214  1.0000
  H   H25       1.0  0.9189505113405583  0.28801212230288775  0.15524794162395228  1.0000
  H   H26       1.0  0.9182524287208101  0.20291416755187552  0.8338997635528109  1.0000
  H   H27       1.0  0.008656257230536646  0.8312045108924482  0.27751265223011456  1.0000
  H   H28       1.0  0.009879442816813189  0.0689329515174597  0.2619034859723306  1.0000
  H   H29       1.0  0.8458054703512145  0.0690391225999969  0.9349152552719535  1.0000
  H   H30       1.0  0.8420787456677397  0.8303073529847369  0.9531742247551556  1.0000
  H   H31       1.0  0.879622100769361  0.27240416922111166  0.04384212666668774  1.0000
  H   H32       1.0  0.9320948844834352  0.47177426372733233  0.1622670120609826  1.0000
  H   H33       1.0  0.9839720203182794  0.49899539874386223  0.014359038908634991  1.0000
  H   H34       1.0  0.034981071441814615  0.495323937124152  0.171899484754926  1.0000
  Zn  Zn1       1.0  0.8370953327343414  0.45744509704454206  0.6354296168687792  1.0000
  Zn  Zn2       1.0  0.005216049911577647  0.4647869341194435  0.6491531399909083  1.0000
  C   C43       1.0  0.9211140588394923  0.4560262600686915  0.8794875168809142  1.0000
  C   C44       1.0  0.9211991592872979  0.4662074900390698  0.40509551678911593  1.0000
  C   C45       1.0  0.9211031113101357  0.6983220258262812  0.6370418185198525  1.0000
  C   C46       1.0  0.9212100497862299  0.2239101613967207  0.6475412801969251  1.0000
  O   O3        1.0  0.9849893024873915  0.47074185116626  0.45868853326071646  1.0000
  O   O4        1.0  0.9849236502189376  0.4570632034844564  0.8363099633824673  1.0000
  O   O5        1.0  0.9849139496286032  0.6527200615001643  0.6405332759797442  1.0000
  O   O6        1.0  0.9849989457257997  0.27508499990167934  0.6544651186033816  1.0000
  O   O7        1.0  0.8573123795487704  0.6471470287583099  0.6301176335663095  1.0000
  O   O8        1.0  0.8573220797981805  0.45149173112336327  0.8258942512322891  1.0000
  O   O9        1.0  0.8573877324224354  0.4651703329964494  0.44827125973538773  1.0000
  O   O10       1.0  0.8573973756414213  0.26951347247674406  0.6440479424481147  1.0000
