data_image0
_chemical_formula_structural       NC10NC5H10C12NCOCH13C13OH12Zn2C4O8
_chemical_formula_sum              "N3 C46 H35 O10 Zn2"
_cell_length_a       19.4436361288709
_cell_length_b       10.299155265289647
_cell_length_c       10.299153481560891
_cell_angle_alpha    85.56585442832863
_cell_angle_beta     89.72153825952512
_cell_angle_gamma    89.39615277754326

_space_group_name_H-M_alt    "P 1"
_space_group_IT_number       1

loop_
  _space_group_symop_operation_xyz
  'x, y, z'

loop_
  _atom_site_type_symbol
  _atom_site_label
  _atom_site_symmetry_multiplicity
  _atom_site_fract_x
  _atom_site_fract_y
  _atom_site_fract_z
  _atom_site_occupancy
  N   N1        1.0  0.6471366440618104  0.40887857122319726  0.5617037632949056  1.0000
  C   C1        1.0  0.588301766875839  0.41878403028626066  0.5760852473366314  1.0000
  C   C2        1.0  0.5149738141361949  0.4311374761169191  0.5940744587215523  1.0000
  C   C3        1.0  0.4727763135684431  0.39911959250329865  0.4994082760255909  1.0000
  C   C4        1.0  0.3968706340142302  0.409559698758454  0.504733628865387  1.0000
  C   C5        1.0  0.3571591875032307  0.38483101653965823  0.6118137469256526  1.0000
  C   C6        1.0  0.2810350833890076  0.3887453777168648  0.5988531922675477  1.0000
  C   C7        1.0  0.24048019376885743  0.4464293775164043  0.6926094807692906  1.0000
  C   C8        1.0  0.1688138098218926  0.4500653272801687  0.6820645034641304  1.0000
  C   C9        1.0  0.1367077021003252  0.39562129291875947  0.5780498726466639  1.0000
  C   C10       1.0  0.0629120279364096  0.3993184599501878  0.5673495954461756  1.0000
  N   N2        1.0  0.0035853111674676  0.4022907882687503  0.5587472819791695  1.0000
  C   C11       1.0  0.17653792754556713  0.3372302257678865  0.4846770112107843  1.0000
  C   C12       1.0  0.2482206983564933  0.3335399985791039  0.4949702229357056  1.0000
  C   C13       1.0  0.385328080016922  0.3443930093899914  0.7429204905210831  1.0000
  C   C14       1.0  0.443992785117051  0.3875273285512737  0.7901519979504115  1.0000
  C   C15       1.0  0.4881643074823336  0.4853781160483064  0.7157577664769663  1.0000
  H   H1        1.0  0.49486222703512667  0.369982633549103  0.40910827927871996  1.0000
  H   H2        1.0  0.372147870902182  0.4320377314822723  0.41156833720958574  1.0000
  H   H3        1.0  0.2643588250172529  0.48973930913684205  0.7734471178966849  1.0000
  H   H4        1.0  0.1384750813043792  0.49539757830529996  0.7549740553633724  1.0000
  H   H5        1.0  0.1521874441969827  0.294116031631082  0.4041738084235922  1.0000
  H   H6        1.0  0.2778944198626252  0.2859643302874728  0.4227576080367943  1.0000
  H   H7        1.0  0.3543894222236841  0.2801838353956665  0.8071851434225914  1.0000
  H   H8        1.0  0.4591704427322035  0.3534768168697442  0.8880965032782562  1.0000
  H   H9        1.0  0.4580312843140543  0.5760940770778673  0.690481464476578  1.0000
  H   H10       1.0  0.5314574700612565  0.5109783614123513  0.7788365863800011  1.0000
  C   C16       1.0  0.8254411045990053  0.024185760918055577  0.5603435884254608  1.0000
  C   C17       1.0  0.8136713034539417  0.034063917726599335  0.4255154264348586  1.0000
  C   C18       1.0  0.8076371359837389  0.92193586513088  0.35703753627326984  1.0000
  C   C19       1.0  0.8135068020696428  0.798807098403497  0.42520900465817224  1.0000
  C   C20       1.0  0.8252874548634965  0.7869735310876754  0.5601186675698151  1.0000
  C   C21       1.0  0.8311851399584461  0.9001811404460877  0.6268553737930074  1.0000
  C   C22       1.0  0.795186956605009  0.933359415890755  0.21440561425883775  1.0000
  C   C23       1.0  0.8300552633874757  0.026802084539593984  0.13269845538766756  1.0000
  C   C24       1.0  0.8183444836440745  0.03742141653156428  0.9984722654763352  1.0000
  C   C25       1.0  0.7719588779372863  0.9539200691727653  0.9431061868280364  1.0000
  C   C26       1.0  0.7362504281090978  0.8623091934217074  0.02475215420697463  1.0000
  C   C27       1.0  0.7479862524930727  0.8514333682206109  0.15894080076418793  1.0000
  N   N3        1.0  0.7580342196940023  0.9643781767440452  0.8056600166767378  1.0000
  C   C28       1.0  0.8082393966791966  0.00035808005326343206  0.7070254465076564  1.0000
  O   O1        1.0  0.8713408156757552  0.001734322858504278  0.7343606135708165  1.0000
  C   C29       1.0  0.786276075161833  0.027170212057862964  0.5686671131343473  1.0000
  H   H11       1.0  0.8299896216228115  0.34786198994835993  0.6121983953472436  1.0000
  H   H12       1.0  0.8082216224144523  0.12919457173806892  0.37375076051766487  1.0000
  H   H13       1.0  0.8097988212211774  0.7120611447008084  0.3726110781459433  1.0000
  H   H14       1.0  0.8402657488716704  0.8918470036452174  0.7308506880607728  1.0000
  H   H15       1.0  0.8479346466049063  0.5573473251386057  0.8146193646291111  1.0000
  H   H16       1.0  0.8667883335508593  0.09118329337672315  0.17248628259301713  1.0000
  H   H17       1.0  0.8447210705385028  0.11237213106195787  0.9386727975524889  1.0000
  H   H18       1.0  0.6994512179478708  0.7986330035225561  0.984097835820342  1.0000
  H   H19       1.0  0.7193997345776855  0.7801400888885113  0.2195915492579359  1.0000
  H   H20       1.0  0.7095861864590707  0.9363959066143566  0.7749882711392102  1.0000
  H   H21       1.0  0.736627077362293  0.08153217527923862  0.5646252492903607  1.0000
  H   H22       1.0  0.779904595550911  0.9336650993577977  0.5234956912467323  1.0000
  H   H23       1.0  0.8254219392337588  0.08652178966450519  0.512946898701069  1.0000
  C   C30       1.0  0.8253052278897803  0.4054332772876792  0.17885911889153028  1.0000
  C   C31       1.0  0.7542008698887185  0.3823654093134474  0.1801275800600579  1.0000
  C   C32       1.0  0.7182741859682096  0.37082998877448814  0.06360207622692404  1.0000
  C   C33       1.0  0.7543630783339096  0.3826797335102652  0.944818172983275  1.0000
  C   C34       1.0  0.8254233230347566  0.4057259809314335  0.9416031369738538  1.0000
  C   C35       1.0  0.8604794739241226  0.4169645778895872  0.05916056509364864  1.0000
  C   C36       1.0  0.6430993414006931  0.3464546558316961  0.06591622139574715  1.0000
  C   C37       1.0  0.5995865940250743  0.4125003645752081  0.9735901486989191  1.0000
  C   C38       1.0  0.528842618707907  0.3896056836320212  0.9758458378050969  1.0000
  C   C39       1.0  0.5004208459243374  0.29941211450096716  0.069568478883276  1.0000
  C   C40       1.0  0.54347196712275  0.23447129713431258  0.16281658557204692  1.0000
  C   C41       1.0  0.6142192112433739  0.2573362681150748  0.16073902780569616  1.0000
  C   C42       1.0  0.4242060370407475  0.27753231680657553  0.07412392432223758  1.0000
  O   O2        1.0  0.3932961453387975  0.36569802171019394  0.15386149835356822  1.0000
  H   H24       1.0  0.9594305892521515  0.44980633670656456  0.3836936853619446  1.0000
  H   H25       1.0  0.7264732959251331  0.3751135904491709  0.27183543976735924  1.0000
  H   H26       1.0  0.7270766633594974  0.3721309581156951  0.8548686493134112  1.0000
  H   H27       1.0  0.9152899941040676  0.43474449090358047  0.05739653435057379  1.0000
  H   H28       1.0  0.8527464758933984  0.41467646899201727  0.6128845192310268  1.0000
  H   H29       1.0  0.6201320004071023  0.4833820483197995  0.9008409447144783  1.0000
  H   H30       1.0  0.496199279029067  0.44249310392944285  0.904620248892269  1.0000
  H   H31       1.0  0.5222919031410943  0.16580789999073375  0.2370102796689424  1.0000
  H   H32       1.0  0.6464492313929834  0.20425597180453736  0.23249131777920984  1.0000
  H   H33       1.0  0.4133104231109131  0.17593885818762223  0.11306336645235171  1.0000
  H   H34       1.0  0.4024331115938086  0.29130097100784536  0.9741696875963992  1.0000
  H   H35       1.0  0.3433017146503361  0.34726699340215705  0.15357851647446985  1.0000
  Zn  Zn1       1.0  0.7500000328028131  0.4069740106072648  0.5608580998746453  1.0000
  Zn  Zn2       1.0  0.9007219177324101  0.40418474446762787  0.5596036297940246  1.0000
  C   C43       1.0  0.8254004953910262  0.40049659718038044  0.7974297362959539  1.0000
  C   C44       1.0  0.8253231007120804  0.41066376623297596  0.32303210665825133  1.0000
  C   C45       1.0  0.825312137489574  0.6427884575341334  0.5549860108985996  1.0000
  C   C46       1.0  0.825411407507774  0.1683703464324804  0.5654759021829472  1.0000
  O   O3        1.0  0.8825272699731161  0.4113549879542222  0.3709418152020525  1.0000
  O   O4        1.0  0.88259074946405  0.39768740705548034  0.7485675404272372  1.0000
  O   O5        1.0  0.8825186284915547  0.5933411632773873  0.5527925228587891  1.0000
  O   O6        1.0  0.8825993394974956  0.21570124193768603  0.5667167358203666  1.0000
  O   O7        1.0  0.7681225596037441  0.5954575140904574  0.5537449942695607  1.0000
  O   O8        1.0  0.7681946802480143  0.3998053182685435  0.7495199421319247  1.0000
  O   O9        1.0  0.768131200570221  0.4134728533077263  0.37189265550631667  1.0000
  O   O10       1.0  0.7682032701087328  0.21781909803906996  0.5676676734960222  1.0000
