data_image0
_chemical_formula_structural       NC10NC5H10C12SCH12C13NH9Zn2C4O8
_chemical_formula_sum              "N3 C45 H31 S1 Zn2 O8"
_cell_length_a       19.4436361288709
_cell_length_b       10.299776766347529
_cell_length_c       10.298528502251457
_cell_angle_alpha    85.54283687761513
_cell_angle_beta     89.70161212865115
_cell_angle_gamma    89.39962546058797

_space_group_name_H-M_alt    "P 1"
_space_group_IT_number       1

loop_
  _space_group_symop_operation_xyz
  'x, y, z'

loop_
  _atom_site_type_symbol
  _atom_site_label
  _atom_site_symmetry_multiplicity
  _atom_site_fract_x
  _atom_site_fract_y
  _atom_site_fract_z
  _atom_site_occupancy
  N   N1        1.0  0.6474403159547116  0.4097863001837745  0.5619785393345325  1.0000
  C   C1        1.0  0.5886031550884953  0.41968063138208844  0.5763648383571314  1.0000
  C   C2        1.0  0.5152723446291372  0.43202016097509954  0.5943600609779149  1.0000
  C   C3        1.0  0.4730909175056558  0.400072689104948  0.4996726434142531  1.0000
  C   C4        1.0  0.3971846047863306  0.4105080957401064  0.5050019137790629  1.0000
  C   C5        1.0  0.3574530650244735  0.38570497954799343  0.6120868415706275  1.0000
  C   C6        1.0  0.2813314218219298  0.3896282711435719  0.5991259951524104  1.0000
  C   C7        1.0  0.2407614281276369  0.44724031507043827  0.6929115013046538  1.0000
  C   C8        1.0  0.1690970605834377  0.4508834922335163  0.6823664288166329  1.0000
  C   C9        1.0  0.13700800920610823  0.39651847009594077  0.5783223940918156  1.0000
  C   C10       1.0  0.0632143813818969  0.40022297031158427  0.5676220227239976  1.0000
  N   N2        1.0  0.003889309736014201  0.40320119401971044  0.5590196335688205  1.0000
  C   C11       1.0  0.1768532473717509  0.3381991451750064  0.4849201372721521  1.0000
  C   C12       1.0  0.24853404549600822  0.33450187520766295  0.49521339743713866  1.0000
  C   C13       1.0  0.3855970369937534  0.3451767057308399  0.7431962714798039  1.0000
  C   C14       1.0  0.4442545747027463  0.3882735722797457  0.7904469342248326  1.0000
  C   C15       1.0  0.4884425877902518  0.486169175260333  0.7160747882681515  1.0000
  H   H1        1.0  0.49519220713247564  0.37100277430331263  0.4093528337917307  1.0000
  H   H2        1.0  0.3724793540568621  0.43305080758232584  0.41183274087409294  1.0000
  H   H3        1.0  0.2646268348908314  0.4904887550364019  0.7737723047957046  1.0000
  H   H4        1.0  0.1387466012671979  0.49615974623862136  0.7552988513131069  1.0000
  H   H5        1.0  0.1525159343167143  0.29514618687890914  0.4043938691826312  1.0000
  H   H6        1.0  0.2782193016894524  0.2869818975402212  0.4229772868572317  1.0000
  H   H7        1.0  0.354644771310789  0.28092708105667996  0.8074482502740881  1.0000
  H   H8        1.0  0.4594134946933108  0.3541559544683448  0.8883922357401306  1.0000
  H   H9        1.0  0.45831697054422227  0.5768954488856433  0.6908241044597212  1.0000
  H   H10       1.0  0.5317251739987314  0.5117221384918356  0.7791691021469076  1.0000
  C   C16       1.0  0.8257329528934354  0.02512735545110245  0.5604969503215176  1.0000
  C   C17       1.0  0.8298624663356993  0.01344325096053356  0.6969929258681373  1.0000
  C   C18       1.0  0.83188870378134  0.8903854227589724  0.7661624320478799  1.0000
  C   C19       1.0  0.8297309503535193  0.7781578990996928  0.6970092097229759  1.0000
  C   C20       1.0  0.8256032738577626  0.7878500223963132  0.5605124694560859  1.0000
  C   C21       1.0  0.8236269938979318  0.9117729214042546  0.4930204135784544  1.0000
  C   C22       1.0  0.8362496833907317  0.879089004716155  0.9105598361300367  1.0000
  C   C23       1.0  0.7968840906947258  0.7863308471499733  0.9849381699720245  1.0000
  C   C24       1.0  0.8010089394477259  0.7759336711649868  0.12082952273586611  1.0000
  C   C25       1.0  0.8443278491646111  0.858018643887117  0.18415085434783673  1.0000
  C   C26       1.0  0.8838575406682218  0.9501995199236886  0.111144387712386  1.0000
  C   C27       1.0  0.879833545395857  0.9609447250013521  0.9752417815195338  1.0000
  S   S1        1.0  0.8496964433934436  0.8442156977903745  0.3585175264498456  1.0000
  C   C28       1.0  0.7805817614004565  0.9615477686296152  0.3786222975437813  1.0000
  H   H11       1.0  0.8241864796711452  0.3570325117180033  0.5084855629603688  1.0000
  H   H12       1.0  0.8305641259812883  0.10024350446459218  0.7499517793462487  1.0000
  H   H13       1.0  0.8322259661108122  0.6830802803568266  0.7497570168016112  1.0000
  H   H14       1.0  0.8204417201162206  0.9200182142408923  0.3877195683282526  1.0000
  H   H15       1.0  0.8239961035412655  0.46409002426359514  0.508506252260315  1.0000
  H   H16       1.0  0.7622620847883717  0.7230222735268458  0.9381057903925805  1.0000
  H   H17       1.0  0.7702569723507228  0.7044207193296842  0.17681296712257843  1.0000
  H   H18       1.0  0.9177474921724262  0.013576957532979828  0.15957196895865255  1.0000
  H   H19       1.0  0.9114535511622794  0.03207221340922106  0.9206643436527377  1.0000
  H   H20       1.0  0.794351699333811  0.05763956478556964  0.3296244791534695  1.0000
  H   H21       1.0  0.7726093262029831  0.9723389523386626  0.4839803697798758  1.0000
  H   H22       1.0  0.7321852006091428  0.9269235518716219  0.33689689789631605  1.0000
  C   C29       1.0  0.8256778575252657  0.4066149851307641  0.17908774527686555  1.0000
  C   C30       1.0  0.7541709116305695  0.4277977497749381  0.177191600100153  1.0000
  C   C31       1.0  0.7179448847862983  0.4383908655204545  0.05908425566802977  1.0000
  C   C32       1.0  0.7541504251815998  0.42753327170761724  0.9419320615315652  1.0000
  C   C33       1.0  0.825658347936771  0.406362368533151  0.9419216218816158  1.0000
  C   C34       1.0  0.8609641769411827  0.3960360308038833  0.060970100338134214  1.0000
  C   C35       1.0  0.6423476614611301  0.4607795853626342  0.058087320458251046  1.0000
  C   C36       1.0  0.6119654449700961  0.549270969823729  0.1392572326790653  1.0000
  C   C37       1.0  0.5408058642004535  0.5702984288887565  0.13819933748419233  1.0000
  C   C38       1.0  0.4990816281540619  0.5032114347852086  0.05619535115031349  1.0000
  C   C39       1.0  0.5287849716508425  0.414968923742584  0.9751350859436849  1.0000
  C   C40       1.0  0.5999372266867907  0.39384723640836117  0.9759564299314172  1.0000
  C   C41       1.0  0.4258227567851322  0.5249099201429113  0.055226912255145644  1.0000
  N   N3        1.0  0.366927564137464  0.5423541621937467  0.05444838771580218  1.0000
  H   H23       1.0  0.9607411047713178  0.3657805783882926  0.3900585063307802  1.0000
  H   H24       1.0  0.7263928970239156  0.4343186855138923  0.26793792031763375  1.0000
  H   H25       1.0  0.726630558097439  0.43738879201531056  0.850456714503875  1.0000
  H   H26       1.0  0.9160759615618483  0.3797147773901335  0.06169661710499774  1.0000
  H   H27       1.0  0.9608484047960358  0.36716838384913486  0.7345134209659814  1.0000
  H   H28       1.0  0.6433290376876061  0.6034592412957676  0.20230094371485818  1.0000
  H   H29       1.0  0.5183720709475406  0.6391024441612416  0.2010938957867736  1.0000
  H   H30       1.0  0.4969457541529237  0.3622395847789217  0.9115236217558547  1.0000
  H   H31       1.0  0.6216959085107968  0.32392551766973043  0.9136142343737119  1.0000
  Zn  Zn1       1.0  0.7503037975030251  0.4078825069573404  0.5611321760614008  1.0000
  Zn  Zn2       1.0  0.90102582123347  0.4050943760978649  0.5598766791517  1.0000
  C   C42       1.0  0.8256613789453771  0.401236529329853  0.7977296170904475  1.0000
  C   C43       1.0  0.825669885389023  0.41174196184531064  0.32327935192846624  1.0000
  C   C44       1.0  0.8256243597367787  0.6436809883124821  0.5553337239151952  1.0000
  C   C45       1.0  0.8257068534302873  0.16929594349914767  0.5656753147477815  1.0000
  O   O1        1.0  0.8828654333420067  0.4123988752325196  0.371194917678066  1.0000
  O   O2        1.0  0.882860359709732  0.3984625095412011  0.7488607843235737  1.0000
  O   O3        1.0  0.8828296951366755  0.594239490114592  0.5531243920437625  1.0000
  O   O4        1.0  0.8828960464847573  0.21662190493293432  0.5669312129995487  1.0000
  O   O5        1.0  0.7684335208177081  0.5963549790751392  0.5540776426351592  1.0000
  O   O6        1.0  0.7684641851240688  0.40057955881815066  0.7498139656925153  1.0000
  O   O7        1.0  0.7684692588497248  0.4145158797700299  0.37214653744834103  1.0000
  O   O8        1.0  0.7684998719887517  0.2187389001495077  0.5678829301497601  1.0000
