data_image0
_chemical_formula_structural       NC11NC3H8C13OH12C12SCH12Zn2C4O8
_chemical_formula_sum              "N2 C44 H32 O9 S1 Zn2"
_cell_length_a       17.807433833752565
_cell_length_b       10.299150109392551
_cell_length_c       10.299780138516091
_cell_angle_alpha    85.5566253413432
_cell_angle_beta     88.51639907153644
_cell_angle_gamma    90.66566965777596

_space_group_name_H-M_alt    "P 1"
_space_group_IT_number       1

loop_
  _space_group_symop_operation_xyz
  'x, y, z'

loop_
  _atom_site_type_symbol
  _atom_site_label
  _atom_site_symmetry_multiplicity
  _atom_site_fract_x
  _atom_site_fract_y
  _atom_site_fract_z
  _atom_site_occupancy
  N   N1        1.0  0.7072602037386228  0.43816064340851013  0.5342333227661469  1.0000
  C   C1        1.0  0.6564419889468425  0.4034505133618662  0.6008043694754077  1.0000
  C   C2        1.0  0.593219004251333  0.3602739718228478  0.6836102567192601  1.0000
  C   C3        1.0  0.6049483601716171  0.29675438943221133  0.8063445489020777  1.0000
  C   C4        1.0  0.5436326348735849  0.25525708929001834  0.8868660422828891  1.0000
  C   C5        1.0  0.4704332142609068  0.27696626428973925  0.8452941156873699  1.0000
  C   C6        1.0  0.4577270721768021  0.3406402771030159  0.7220995954735565  1.0000
  C   C7        1.0  0.3799594022352722  0.36367886928190885  0.677746696102961  1.0000
  C   C8        1.0  0.3611890443155826  0.34676812428224535  0.5481782038079139  1.0000
  C   C9        1.0  0.28795969179370995  0.36843855578106477  0.5065622209697855  1.0000
  C   C10       1.0  0.2325576282304104  0.4073380471067758  0.5936943865041346  1.0000
  C   C11       1.0  0.1571915382610451  0.42966660019539016  0.55071694926655  1.0000
  N   N2        1.0  0.0966025754320329  0.44761709803150374  0.5161662176284092  1.0000
  C   C12       1.0  0.2506364249939944  0.4244592316620659  0.7227316980591085  1.0000
  C   C13       1.0  0.3238130023757039  0.40275394111173335  0.7646031100520534  1.0000
  C   C14       1.0  0.5199001089276452  0.38213301670376154  0.6415945187011503  1.0000
  H   H1        1.0  0.6614147795616577  0.27934824442939266  0.8397144476474496  1.0000
  H   H2        1.0  0.5528325180278459  0.20582847074426436  0.9816145609522113  1.0000
  H   H3        1.0  0.4237954145111112  0.24242597538225197  0.9087419678596533  1.0000
  H   H4        1.0  0.4028786140423661  0.3151042381578959  0.47947572091389645  1.0000
  H   H5        1.0  0.2745285744286468  0.35452804535829174  0.406537154853287  1.0000
  H   H6        1.0  0.2082303386172273  0.4548998550446284  0.7909198535869193  1.0000
  H   H7        1.0  0.33671541504088054  0.4182099192115074  0.8644449037819264  1.0000
  H   H8        1.0  0.5113984324220532  0.43292415313236776  0.5470798407158108  1.0000
  C   C15       1.0  0.9020057747457412  0.061491071565495936  0.5253404138413125  1.0000
  C   C16       1.0  0.9006111049739068  0.04969132252406383  0.6622093121304773  1.0000
  C   C17       1.0  0.8998386306705852  0.9265723383188076  0.7313440993229752  1.0000
  C   C18       1.0  0.9004662891006416  0.8144323586981606  0.6618526546179138  1.0000
  C   C19       1.0  0.9018641845804288  0.8242768040902798  0.5250700014770944  1.0000
  C   C20       1.0  0.9026278244353643  0.9482666510905917  0.4576131324398265  1.0000
  C   C21       1.0  0.898356685086222  0.9150711079838632  0.8760460604793137  1.0000
  C   C22       1.0  0.8521560242985853  0.821087778295263  0.9462081237004683  1.0000
  C   C23       1.0  0.8507366254169368  0.810345936821567  0.0823736795150326  1.0000
  C   C24       1.0  0.8959849732166765  0.8924408205726873  0.1508158773032835  1.0000
  C   C25       1.0  0.9414668347937883  0.9873605063754507  0.08132971028766967  1.0000
  C   C26       1.0  0.9429036725377363  0.9982785683596337  0.9451630565356528  1.0000
  C   C27       1.0  0.8928801076951516  0.883213857301707  0.29703923392987963  1.0000
  O   O1        1.0  0.8367264043914253  0.9650366570370158  0.33988373681663164  1.0000
  H   H9        1.0  0.9041502004119826  0.29104463220287213  0.2670166034311645  1.0000
  H   H10       1.0  0.8990809086669227  0.13644104769143017  0.7152863596050649  1.0000
  H   H11       1.0  0.9008907304043726  0.7193335351217226  0.7146639442501383  1.0000
  H   H12       1.0  0.9037039372438845  0.9565761233264971  0.35210867785745337  1.0000
  H   H13       1.0  0.9023512990538108  0.50058662691376  0.47246094228698454  1.0000
  H   H14       1.0  0.8162322740662397  0.757193501687186  0.8957689406058673  1.0000
  H   H15       1.0  0.8141874933583299  0.738141276157491  0.13444286597412425  1.0000
  H   H16       1.0  0.9760067096598014  0.05277432900190915  0.1325792811634693  1.0000
  H   H17       1.0  0.979477911831854  0.0709294748259448  0.8938993096405763  1.0000
  H   H18       1.0  0.9481374510076594  0.91239525279315  0.33464313916336763  1.0000
  H   H19       1.0  0.8806683386218712  0.7809054705116211  0.33541668419058956  1.0000
  H   H20       1.0  0.8369969962900474  0.9553902952156035  0.4364932352456006  1.0000
  C   C28       1.0  0.9019651962923114  0.44277338271031663  0.14385171568473543  1.0000
  C   C29       1.0  0.8305449373940058  0.38302250917720526  0.15068140774917604  1.0000
  C   C30       1.0  0.7943259820583767  0.35285981916086206  0.03699648905132036  1.0000
  C   C31       1.0  0.8304833905347638  0.38324647136455314  0.9153802854201851  1.0000
  C   C32       1.0  0.9019047701044102  0.44299454840757346  0.9065587040801413  1.0000
  C   C33       1.0  0.9372456998642363  0.47242421065120355  0.021336096722454956  1.0000
  C   C34       1.0  0.7187683045032358  0.2896634070810107  0.045284582239656146  1.0000
  C   C35       1.0  0.6631216471114412  0.3299761681506155  0.9568952205919903  1.0000
  C   C36       1.0  0.592023234470043  0.2704660040193172  0.9649317286664134  1.0000
  C   C37       1.0  0.5755344151417843  0.17024770649105658  0.06129585810759752  1.0000
  C   C38       1.0  0.6305126096796393  0.1291197126608843  0.14931087899024376  1.0000
  C   C39       1.0  0.7016575322572753  0.18845756267675884  0.14163468356064413  1.0000
  S   S1        1.0  0.48433621787472786  0.0937555213173693  0.07115620255319755  1.0000
  C   C40       1.0  0.445789007668915  0.2070436890005507  0.18163243692323117  1.0000
  H   H21       1.0  0.9291905485703449  0.4654939413574448  0.46870580827186203  1.0000
  H   H22       1.0  0.8024726870383608  0.36141668744539035  0.24454102548964318  1.0000
  H   H23       1.0  0.8032450522598492  0.35858157239503385  0.8275807684875818  1.0000
  H   H24       1.0  0.9923435642562538  0.5185186867649825  0.015298900121406556  1.0000
  H   H25       1.0  0.9291029327616593  0.46581930343960143  0.5757401863503118  1.0000
  H   H26       1.0  0.6742783263339603  0.40862124361594776  0.8826707865696335  1.0000
  H   H27       1.0  0.5496877514743835  0.30277369813120414  0.8965528667911422  1.0000
  H   H28       1.0  0.6182075698767076  0.05114277608335405  0.22371321366880026  1.0000
  H   H29       1.0  0.7435891966279425  0.15408890764729843  0.2099322140954314  1.0000
  H   H30       1.0  0.4775578665008255  0.20178471081573823  0.2731745260235834  1.0000
  H   H31       1.0  0.3861752882710311  0.18046500797308007  0.20518024227385467  1.0000
  H   H32       1.0  0.4486742546949095  0.3078438537531376  0.13487067638454286  1.0000
  Zn  Zn1       1.0  0.8196160018019989  0.440886099209465  0.5290270319422741  1.0000
  Zn  Zn2       1.0  0.9842467637407081  0.4448810249014876  0.5213830978027321  1.0000
  C   C41       1.0  0.9019154689483668  0.4377786249353304  0.762392641807065  1.0000
  C   C42       1.0  0.9019490940428526  0.44799018158109183  0.2880175313467168  1.0000
  C   C43       1.0  0.9018874906467975  0.6800925080771991  0.5199463140740535  1.0000
  C   C44       1.0  0.9019770164516147  0.20567473667501668  0.5304639314771216  1.0000
  O   O2        1.0  0.9644202072079259  0.4512513742467992  0.33350006489346984  1.0000
  O   O3        1.0  0.9643952950097394  0.43754850852826466  0.7111081656334641  1.0000
  O   O4        1.0  0.9643718598570717  0.6332200135970509  0.5153310792674641  1.0000
  O   O5        1.0  0.9644435861892572  0.2555798770775086  0.5292770564938054  1.0000
  O   O6        1.0  0.839419123173051  0.6301872456715836  0.5211330758528689  1.0000
  O   O7        1.0  0.8394425580381271  0.4345173010051435  0.7169100924231435  1.0000
  O   O8        1.0  0.839467470418395  0.4482201210127552  0.3393004303593794  1.0000
  O   O9        1.0  0.8394908493906637  0.2525486145821083  0.5350775193270476  1.0000
