data_image0
_chemical_formula_structural       NC10NC3NH7C12NCOCH13C16H10Zn2C4O8
_chemical_formula_sum              "N4 C47 H30 O9 Zn2"
_cell_length_a       19.210446455230148
_cell_length_b       10.299155265289647
_cell_length_c       10.299151387937775
_cell_angle_alpha    85.56903598390942
_cell_angle_beta     89.97931430287453
_cell_angle_gamma    89.9251083167036

_space_group_name_H-M_alt    "P 1"
_space_group_IT_number       1

loop_
  _space_group_symop_operation_xyz
  'x, y, z'

loop_
  _atom_site_type_symbol
  _atom_site_label
  _atom_site_symmetry_multiplicity
  _atom_site_fract_x
  _atom_site_fract_y
  _atom_site_fract_z
  _atom_site_occupancy
  N   N1        1.0  0.6553270930730731  0.4196704311159247  0.5669637900336046  1.0000
  C   C1        1.0  0.5950978901102133  0.42187817332471966  0.5671943886728035  1.0000
  C   C2        1.0  0.5202926401924588  0.42461536929212684  0.5674800710954637  1.0000
  C   C3        1.0  0.4846470234851038  0.5408590414894283  0.5825629206167748  1.0000
  C   C4        1.0  0.4119815046439544  0.5410105656398492  0.5825102854772362  1.0000
  C   C5        1.0  0.3751256740327691  0.425324414058061  0.5675663777526292  1.0000
  C   C6        1.0  0.297803949973935  0.4239677953709171  0.5674161234660664  1.0000
  C   C7        1.0  0.2600251980522833  0.5275180199478726  0.5040285238133402  1.0000
  C   C8        1.0  0.1872472575726288  0.5261156607494175  0.5039197986890482  1.0000
  C   C9        1.0  0.151246587843824  0.4214205806513285  0.5671476122534382  1.0000
  C   C10       1.0  0.0763174561341121  0.42011836495318855  0.5670111077159794  1.0000
  N   N2        1.0  0.0160799160553569  0.41907133933506446  0.5669013929547781  1.0000
  C   C11       1.0  0.1883016480417904  0.3179960455670374  0.6305101721312429  1.0000
  C   C12       1.0  0.2610815125220036  0.3191241415324293  0.6306692114306951  1.0000
  C   C13       1.0  0.4133806016149741  0.3109012253236889  0.5527712396031441  1.0000
  N   N3        1.0  0.4841498270119147  0.3133464132401884  0.5529361935119532  1.0000
  H   H1        1.0  0.5127210681481631  0.6303029374065265  0.5945890769962081  1.0000
  H   H2        1.0  0.3846854464705516  0.6310369410818013  0.5959310206379824  1.0000
  H   H3        1.0  0.2867330351879961  0.6087549529001153  0.45301764615253015  1.0000
  H   H4        1.0  0.1590815332526553  0.6065253932082935  0.4542395209176877  1.0000
  H   H5        1.0  0.1609543283546155  0.2366228181224459  0.6800912051810877  1.0000
  H   H6        1.0  0.2886022117557157  0.23883419976741083  0.6817871860928109  1.0000
  H   H7        1.0  0.3871427201100157  0.22001185900710873  0.5393044723352094  1.0000
  C   C14       1.0  0.8357845642394657  0.03797333193465269  0.5670512846840852  1.0000
  C   C15       1.0  0.8239080667318738  0.04764614258285316  0.43212811495636116  1.0000
  C   C16       1.0  0.8178190282997427  0.9354128490654157  0.3636015133747421  1.0000
  C   C17       1.0  0.8237416597889291  0.8123865421226487  0.43182035883806313  1.0000
  C   C18       1.0  0.8356291185580662  0.8007585078827967  0.5668251172583385  1.0000
  C   C19       1.0  0.8415804840266109  0.9140689669612695  0.6336094339212919  1.0000
  C   C20       1.0  0.8052559873051685  0.9466191826477849  0.22086909153996492  1.0000
  C   C21       1.0  0.8405667083402656  0.04064308925871063  0.1394453648957663  1.0000
  C   C22       1.0  0.8287497867454985  0.051058100652056515  0.005124643981124999  1.0000
  C   C23       1.0  0.7818187083084562  0.9667742851190021  0.9493821846390547  1.0000
  C   C24       1.0  0.7456577173230986  0.8745680522700434  0.030737898872838176  1.0000
  C   C25       1.0  0.7574999957771787  0.8638969663408618  0.16502127992589788  1.0000
  N   N4        1.0  0.7677620256718711  0.976990694149197  0.8118235220617969  1.0000
  C   C26       1.0  0.8185992218689078  0.013808564706591975  0.7135969743272699  1.0000
  O   O1        1.0  0.8824552816530667  0.0162465478144298  0.7414443534623043  1.0000
  C   C27       1.0  0.7964070653987455  0.040243884941312924  0.5750608859024728  1.0000
  H   H8        1.0  0.8403743805228634  0.361728904231047  0.6189428089955782  1.0000
  H   H9        1.0  0.818406183095024  0.14268231747201732  0.38031941467908137  1.0000
  H   H10       1.0  0.8200027225049404  0.7255753255843063  0.3791925423387257  1.0000
  H   H11       1.0  0.8507434181487099  0.9058932568200148  0.7376780484423255  1.0000
  H   H12       1.0  0.8584829081701728  0.571527146605334  0.8215086463024104  1.0000
  H   H13       1.0  0.8777328071491409  0.10564371130942973  0.1795312670875635  1.0000
  H   H14       1.0  0.8554605162283501  0.12644861341918978  0.9455395738498047  1.0000
  H   H15       1.0  0.7084249075130168  0.8102712890906926  0.9897849720525147  1.0000
  H   H16       1.0  0.7285524314721892  0.7921268065061668  0.2254396845879083  1.0000
  H   H17       1.0  0.7187371366657094  0.9481926950530045  0.7807585497750562  1.0000
  H   H18       1.0  0.7461597209691623  0.09377144133817894  0.570615935596642  1.0000
  H   H19       1.0  0.7899705233322671  0.9466291769204389  0.5298379185297719  1.0000
  H   H20       1.0  0.836040163364197  0.10025003398188148  0.5196587270428217  1.0000
  C   C28       1.0  0.8357472065319671  0.41919707458603805  0.18556727362790104  1.0000
  C   C29       1.0  0.7685731302948379  0.4732656407747917  0.18065442607099325  1.0000
  C   C30       1.0  0.7344729323067422  0.5008535440756317  0.06100751129657178  1.0000
  C   C31       1.0  0.7684519603905356  0.47364346399267077  0.9453420008392963  1.0000
  C   C32       1.0  0.8356664427104297  0.4195346833996292  0.948309164153835  1.0000
  C   C33       1.0  0.8689009600232178  0.3926465386727782  0.0688483674168785  1.0000
  C   C34       1.0  0.6634108949842481  0.5580518499322347  0.05685572105255554  1.0000
  C   C35       1.0  0.6457097579130293  0.6579009140435954  0.96152440505566  1.0000
  C   C36       1.0  0.5788147038729596  0.7116967634121127  0.9577450255539279  1.0000
  C   C37       1.0  0.5287432202864415  0.6664535171639778  0.04899513243922882  1.0000
  C   C38       1.0  0.545813356385914  0.567163880833164  0.1441642991624006  1.0000
  C   C39       1.0  0.6126884577135421  0.5132804653150287  0.14819327304139218  1.0000
  C   C40       1.0  0.4598843444277538  0.7218824722427701  0.04497624370147024  1.0000
  C   C41       1.0  0.402216007550588  0.768303384354238  0.04161039599324967  1.0000
  C   C42       1.0  0.3346869847189294  0.8226618565707127  0.037669021851755025  1.0000
  C   C43       1.0  0.2770279671097827  0.869075504719478  0.03430382451742964  1.0000
  H   H21       1.0  0.8615704444486525  0.39833744311522934  0.5149374303795138  1.0000
  H   H22       1.0  0.7429918041690126  0.49570414637193516  0.2699560646472374  1.0000
  H   H23       1.0  0.7420347515968326  0.4930677636097085  0.8529679294474994  1.0000
  H   H24       1.0  0.9207132097609393  0.3509385113230954  0.07192229993849653  1.0000
  H   H25       1.0  0.9623555225860861  0.3166490937091664  0.7466756633884897  1.0000
  H   H26       1.0  0.6838632666117234  0.6955423357978581  0.8909602146643101  1.0000
  H   H27       1.0  0.5662103198873458  0.788772572309802  0.8838719240224928  1.0000
  H   H28       1.0  0.5073895053124177  0.5311642256993168  0.21505945793770875  1.0000
  H   H29       1.0  0.6244703746400216  0.4354443294994237  0.22167372541467234  1.0000
  H   H30       1.0  0.22639858909634217  0.9098304575034313  0.0313489108104581  1.0000
  Zn  Zn1       1.0  0.7594325641684291  0.41949408517513387  0.5669532837185554  1.0000
  Zn  Zn2       1.0  0.9119744300510348  0.41923710664173663  0.5669225382411645  1.0000
  C   C44       1.0  0.835681217368624  0.414296842057577  0.8041361322956289  1.0000
  C   C45       1.0  0.8357274422557712  0.424435985752198  0.3297398163096201  1.0000
  C   C46       1.0  0.8356554467634172  0.6565735598888884  0.5616926819981134  1.0000
  C   C47       1.0  0.8357531611198126  0.1821577076194396  0.5721833363192597  1.0000
  O   O2        1.0  0.893609653462832  0.4260910240164175  0.3781137725975223  1.0000
  O   O3        1.0  0.8935747530272272  0.4124457830709922  0.7557384673442649  1.0000
  O   O4        1.0  0.893553162425344  0.6080872986395067  0.5599636656582905  1.0000
  O   O5        1.0  0.8936311920209252  0.2304495177834054  0.5738884769160497  1.0000
  O   O6        1.0  0.7777757501434867  0.6082816741225705  0.5599873450473303  1.0000
  O   O7        1.0  0.7777973404314835  0.4126417189446079  0.7557620770248412  1.0000
  O   O8        1.0  0.7778322410879214  0.426286913939373  0.3781358208825496  1.0000
  O   O9        1.0  0.7778537796347527  0.23064539845996368  0.5739106225721848  1.0000
