data_image0
_chemical_formula_structural       NC10NC5H10C12NCOCH13C12ClH9Zn2C4O8
_chemical_formula_sum              "N3 C45 H32 O9 Cl1 Zn2"
_cell_length_a       19.4436361288709
_cell_length_b       10.299155265289647
_cell_length_c       10.299771906710086
_cell_angle_alpha    85.5278422735101
_cell_angle_beta     89.71369758328774
_cell_angle_gamma    89.39615277754326

_space_group_name_H-M_alt    "P 1"
_space_group_IT_number       1

loop_
  _space_group_symop_operation_xyz
  'x, y, z'

loop_
  _atom_site_type_symbol
  _atom_site_label
  _atom_site_symmetry_multiplicity
  _atom_site_fract_x
  _atom_site_fract_y
  _atom_site_fract_z
  _atom_site_occupancy
  N   N1        1.0  0.6472357656540028  0.409833792627569  0.5617150374271882  1.0000
  C   C1        1.0  0.5883998973539898  0.41972970045839486  0.5760964087391793  1.0000
  C   C2        1.0  0.5150707048702446  0.4320711990424957  0.5940854791150754  1.0000
  C   C3        1.0  0.4728797283150822  0.4001161864575786  0.499420038463096  1.0000
  C   C4        1.0  0.3969736817589689  0.41055275596495666  0.5047453495599392  1.0000
  C   C5        1.0  0.3572548557168801  0.3857529582011543  0.611824628269183  1.0000
  C   C6        1.0  0.2811316447919601  0.38967592692311137  0.5988641752028114  1.0000
  C   C7        1.0  0.24057029386546902  0.44729765998560067  0.6926197287928082  1.0000
  C   C8        1.0  0.1689046366359311  0.4509406130271134  0.6820748341447986  1.0000
  C   C9        1.0  0.1368056971844006  0.3965656583164672  0.5780610186494313  1.0000
  C   C10       1.0  0.063010760440556  0.40026993176558157  0.5673608253234175  1.0000
  N   N2        1.0  0.0036846365084619  0.40324797317282557  0.558758579285928  1.0000
  C   C11       1.0  0.1766423575117321  0.33823660325570093  0.48468888911979247  1.0000
  C   C12       1.0  0.24832441895590282  0.33453953999524666  0.49498202016103576  1.0000
  C   C13       1.0  0.3854147128810788  0.34522787860803406  0.7429303441800987  1.0000
  C   C14       1.0  0.4440761629756683  0.38833082972029676  0.7901614813837048  1.0000
  C   C15       1.0  0.48825281229219036  0.48623102495438086  0.7157678330518862  1.0000
  H   H1        1.0  0.4949718648943793  0.3710391987996331  0.409120749535715  1.0000
  H   H2        1.0  0.3722573392241357  0.4330926629247378  0.4115807881833362  1.0000
  H   H3        1.0  0.264443354109021  0.4905539045843441  0.7734567322717292  1.0000
  H   H4        1.0  0.1385608834853234  0.49622444234134844  0.754983814540124  1.0000
  H   H5        1.0  0.1522974221201215  0.29517587403138146  0.4041863173595992  1.0000
  H   H6        1.0  0.2780031170650338  0.2870118305549678  0.4227699713030779  1.0000
  H   H7        1.0  0.35447162622641837  0.28097602427399226  0.8071944933410149  1.0000
  H   H8        1.0  0.45924707064942016  0.3542152697646066  0.8881052189703282  1.0000
  H   H9        1.0  0.45812153106499054  0.5769637728349941  0.6904917291806214  1.0000
  H   H10       1.0  0.5315416277325318  0.5117893775306983  0.7788461585095199  1.0000
  C   C16       1.0  0.8255403199289795  0.02514188566077702  0.5603548732195185  1.0000
  C   C17       1.0  0.8137798105985974  0.03510958643318518  0.4255277680838918  1.0000
  C   C18       1.0  0.807750362349185  0.9230270123312139  0.35705041468849363  1.0000
  C   C19       1.0  0.8136153303316551  0.7998529706151971  0.42522134870910255  1.0000
  C   C20       1.0  0.8253866856941114  0.7879298052079802  0.5601299541269229  1.0000
  C   C21       1.0  0.8312797715636654  0.9010930924520638  0.6268661372322522  1.0000
  C   C22       1.0  0.7953100125888928  0.9345452897971579  0.21441961069906657  1.0000
  C   C23       1.0  0.8301839503001448  0.02804222294662817  0.13271309229214356  1.0000
  C   C24       1.0  0.8184824208859305  0.03875069911234941  0.9984879545172096  1.0000
  C   C25       1.0  0.7721006307866153  0.9552861222477305  0.9431223098577362  1.0000
  C   C26       1.0  0.7363865542467132  0.8636210226353909  0.024767637252077535  1.0000
  C   C27       1.0  0.7481131308888382  0.8526560781943606  0.15895523196717876  1.0000
  N   N3        1.0  0.7581854447806065  0.9658355124910546  0.8056772170827551  1.0000
  C   C28       1.0  0.8083974192636952  0.0018809223699434163  0.7070434200639912  1.0000
  O   O1        1.0  0.8714969544304745  0.003239010961883615  0.7343783728595472  1.0000
  C   C29       1.0  0.7864436328462275  0.028784942845178296  0.5686861712170215  1.0000
  H   H11       1.0  0.8300852633280387  0.34878367615176886  0.6122092736756948  1.0000
  H   H12       1.0  0.8083336969716993  0.13027461911826355  0.37376350792573176  1.0000
  H   H13       1.0  0.8099109743207501  0.7131419489827927  0.37262383448744774  1.0000
  H   H14       1.0  0.8403532135380714  0.892689888829208  0.7308606363293308  1.0000
  H   H15       1.0  0.8480163382710132  0.558134576698012  0.8146286562741474  1.0000
  H   H16       1.0  0.8669142784464933  0.0923970073357121  0.17250060761930364  1.0000
  H   H17       1.0  0.8448631289191908  0.11374112850138851  0.9386889553334559  1.0000
  H   H18       1.0  0.6995901458176086  0.7999718326505216  0.9841136375356543  1.0000
  H   H19       1.0  0.7195224331677857  0.7813225186392623  0.2196055050480421  1.0000
  H   H20       1.0  0.709739525319024  0.937873612509809  0.775005711966712  1.0000
  H   H21       1.0  0.7367949135956884  0.0831495904056756  0.5646443390553175  1.0000
  H   H22       1.0  0.7800752662680348  0.9353098300213218  0.5235151034070809  1.0000
  H   H23       1.0  0.8255933369312404  0.08817352613960905  0.5129663935484738  1.0000
  C   C30       1.0  0.8254307335951666  0.40664275882953227  0.17887339396413027  1.0000
  C   C31       1.0  0.8878016633523929  0.4743786235569871  0.17200796750108127  1.0000
  C   C32       1.0  0.9194390823518792  0.508592148804877  0.05139861689926195  1.0000
  C   C33       1.0  0.8878680539323656  0.474162218188082  0.9367377043826886  1.0000
  C   C34       1.0  0.8254962393411646  0.4064289298957744  0.941611481464852  1.0000
  C   C35       1.0  0.7946271752773695  0.37304767037237063  0.06314433596831215  1.0000
  C   C36       1.0  0.9854227823444898  0.5802496411549036  0.045189312254800384  1.0000
  C   C37       1.0  0.9962723652033988  0.6830622300685747  0.12487088220786813  1.0000
  C   C38       1.0  0.05840878109659986  0.7504067786001356  0.1188389420498559  1.0000
  C   C39       1.0  0.11040062905271064  0.7159727848445772  0.033429576723291055  1.0000
  C   C40       1.0  0.10020748409331404  0.6140076003672517  0.9538711025395523  1.0000
  C   C41       1.0  0.03813275732488974  0.546461574822932  0.959526959215554  1.0000
  Cl  Cl1       1.0  0.1883188924631991  0.8005900078112804  0.026098195398387647  1.0000
  H   H24       1.0  0.8016461287606679  0.38088964787708335  0.508938537128492  1.0000
  H   H25       1.0  0.9124044880743601  0.4991255075054415  0.26077724252098244  1.0000
  H   H26       1.0  0.9115642915523124  0.501867656838014  0.8434232551551397  1.0000
  H   H27       1.0  0.7465104557650175  0.3207936964428735  0.06767249710347367  1.0000
  H   H28       1.0  0.8017428258576487  0.38057326545282266  0.6160186436276525  1.0000
  H   H29       1.0  0.9563939770196861  0.7124543650453867  0.1905670769428771  1.0000
  H   H30       1.0  0.0659978832948993  0.8295466122624542  0.18038610756341766  1.0000
  H   H31       1.0  0.14039931493072766  0.5867569862621049  0.8878280962873606  1.0000
  H   H32       1.0  0.0316853560813104  0.46676032742363227  0.898190019609812  1.0000
  Zn  Zn1       1.0  0.7500992126747273  0.4079297936454498  0.5608693806356881  1.0000
  Zn  Zn2       1.0  0.9008211840573569  0.40514136064202044  0.5596149203882723  1.0000
  C   C42       1.0  0.8254833716971859  0.40129526495606993  0.7974391626824564  1.0000
  C   C43       1.0  0.8254386705949747  0.41177749759462823  0.32304525162615194  1.0000
  C   C44       1.0  0.8254117220422448  0.6437481404261423  0.5549973376882047  1.0000
  C   C45       1.0  0.8255102691393248  0.16932306263123875  0.5654871467471951  1.0000
  O   O2        1.0  0.8826395381115776  0.4124369008504498  0.37095458462812947  1.0000
  O   O3        1.0  0.8826769931562384  0.3985185258757924  0.7485773498216661  1.0000
  O   O4        1.0  0.8826183642105992  0.5943023029393388  0.5528038668421227  1.0000
  O   O5        1.0  0.8826981156157823  0.21665313405666198  0.5667279706582995  1.0000
  O   O6        1.0  0.7682222296822897  0.5964180211837797  0.5537563307869156  1.0000
  O   O7        1.0  0.7682808583045074  0.40063580456652104  0.7495297440609219  1.0000
  O   O8        1.0  0.7682434031805928  0.4145541347185977  0.3719054174792009  1.0000
  O   O9        1.0  0.7683019806922192  0.2187703586080223  0.5676789008799987  1.0000
