data_image0
_chemical_formula_structural       NC10NC3NCH9C12SCH12C13NH9Zn2C4O8
_chemical_formula_sum              "N4 C44 H30 S1 Zn2 O8"
_cell_length_a       19.437513618241372
_cell_length_b       10.299776766347529
_cell_length_c       10.298528502251457
_cell_angle_alpha    85.54283687761513
_cell_angle_beta     90.34428338018773
_cell_angle_gamma    89.50378728869872

_space_group_name_H-M_alt    "P 1"
_space_group_IT_number       1

loop_
  _space_group_symop_operation_xyz
  'x, y, z'

loop_
  _atom_site_type_symbol
  _atom_site_label
  _atom_site_symmetry_multiplicity
  _atom_site_fract_x
  _atom_site_fract_y
  _atom_site_fract_z
  _atom_site_occupancy
  N   N1        1.0  0.6476412396319116  0.41094983651971173  0.5755989719577854  1.0000
  C   C1        1.0  0.588704983797171  0.42796079850382873  0.5726243936739979  1.0000
  C   C2        1.0  0.5152608637147822  0.4492144283371651  0.5689321769000433  1.0000
  C   C3        1.0  0.47351538312241853  0.3480306714633401  0.5572606602367391  1.0000
  C   C4        1.0  0.3976236104317212  0.35809816648051296  0.5500394729416178  1.0000
  C   C5        1.0  0.35803671004201393  0.4389191334068887  0.6157988646402508  1.0000
  C   C6        1.0  0.2818558013917556  0.4303143915391814  0.607352782778481  1.0000
  C   C7        1.0  0.24874055285803762  0.3089697431327356  0.6119838412563472  1.0000
  C   C8        1.0  0.1770068226514648  0.30260096438239614  0.6048142022842702  1.0000
  C   C9        1.0  0.1374178011460275  0.41710401033666256  0.5933757319302511  1.0000
  C   C10       1.0  0.0635696516878071  0.41039712465589684  0.5860379444354606  1.0000
  N   N2        1.0  0.004200837461517  0.4050053784398082  0.5801388218157688  1.0000
  C   C11       1.0  0.1698165202491625  0.5381377903800451  0.589490010424703  1.0000
  C   C12       1.0  0.2415346136991005  0.5447605312001209  0.5967217056513752  1.0000
  C   C13       1.0  0.3867069079311013  0.5311659082389957  0.705739949858029  1.0000
  N   N3        1.0  0.4436810970569768  0.5943857799308221  0.6853399084174878  1.0000
  C   C14       1.0  0.4875206974819596  0.5851712697437901  0.5722171274747825  1.0000
  H   H1        1.0  0.4959147718637681  0.25298097889507165  0.545127817922419  1.0000
  H   H2        1.0  0.3729195083617083  0.2886110878731334  0.49170660441797276  1.0000
  H   H3        1.0  0.27820596597050673  0.21905485035114625  0.6229965096570012  1.0000
  H   H4        1.0  0.1524288789043657  0.2083746681041092  0.6086918382897575  1.0000
  H   H5        1.0  0.1396659874554498  0.6273968329910458  0.5807897110962599  1.0000
  H   H6        1.0  0.2656309672953726  0.6393996266028819  0.5928286518280554  1.0000
  H   H7        1.0  0.3567023397760173  0.5515163645005572  0.790119387002741  1.0000
  H   H8        1.0  0.5302618542708933  0.655480164437998  0.5779887334560865  1.0000
  H   H9        1.0  0.4578468143275952  0.613316944177853  0.48156313847346954  1.0000
  C   C15       1.0  0.8259892070950847  0.026611307362647274  0.5778681886774424  1.0000
  C   C16       1.0  0.8301200020717315  0.01493462415682334  0.7144510382697788  1.0000
  C   C17       1.0  0.8321468683306675  0.8918804373733745  0.7836631711286566  1.0000
  C   C18       1.0  0.829988445275481  0.7796490359442756  0.7144645553760389  1.0000
  C   C19       1.0  0.8258594878154109  0.7893337412573884  0.5778809797079303  1.0000
  C   C20       1.0  0.8238825945458633  0.913253088627462  0.5103473481245935  1.0000
  C   C21       1.0  0.8365092013065977  0.8805918565907815  0.9281523186927643  1.0000
  C   C22       1.0  0.7971313920719476  0.7877629538202021  0.0017025045344228884  1.0000
  C   C23       1.0  0.8012575209117123  0.7773731907368934  0.13768063321125135  1.0000
  C   C24       1.0  0.8445898740216302  0.8595360132997685  0.20191328016236842  1.0000
  C   C25       1.0  0.8841318329895613  0.9517879294481146  0.12973841373233452  1.0000
  C   C26       1.0  0.8801065889288412  0.9625259028712151  0.9937511533171042  1.0000
  S   S1        1.0  0.8499601343155304  0.8457427152807008  0.37639289329411163  1.0000
  C   C27       1.0  0.7808240035870967  0.9629505778464313  0.39504367419595576  1.0000
  H   H10       1.0  0.8244422539473422  0.3585136844115382  0.5258242676080753  1.0000
  H   H11       1.0  0.8308218794671772  0.1017361386365625  0.7674246528118707  1.0000
  H   H12       1.0  0.832484235324594  0.6845759010764796  0.7672648509901865  1.0000
  H   H13       1.0  0.8206963322608025  0.9214926571035779  0.4049794931348665  1.0000
  H   H14       1.0  0.8242518187370017  0.4655708548259111  0.5258409518975429  1.0000
  H   H15       1.0  0.7624986417300568  0.7243921598488784  0.9541417694801826  1.0000
  H   H16       1.0  0.7704960103893801  0.705804973527722  0.1930171375085753  1.0000
  H   H17       1.0  0.9180323017468754  0.015226271806502156  0.17887894996409293  1.0000
  H   H18       1.0  0.9117364075037576  0.03371021663386253  0.9398389167784851  1.0000
  H   H19       1.0  0.7945982148202382  0.05906712041179851  0.3463355388964645  1.0000
  H   H20       1.0  0.7728490942604153  0.9737274340293584  0.5002340274720556  1.0000
  H   H21       1.0  0.7324124236276551  0.9282393860335525  0.35230013885441747  1.0000
  C   C28       1.0  0.8259340946288694  0.40809883802860725  0.19645782457189864  1.0000
  C   C29       1.0  0.754404957594449  0.42915309518294764  0.19305736229498005  1.0000
  C   C30       1.0  0.7181676885300927  0.4396811079413603  0.07418791802804359  1.0000
  C   C31       1.0  0.7543844647878081  0.42888858029875365  0.9577973927456651  1.0000
  C   C32       1.0  0.8259145789858581  0.4078461863696694  0.9592912907464846  1.0000
  C   C33       1.0  0.8612313646403504  0.3975832979096312  0.07908251050797332  1.0000
  C   C34       1.0  0.6425470047071424  0.46193396952129206  0.0716006170943031  1.0000
  C   C35       1.0  0.6121553595374973  0.5503707530995221  0.1521313678009768  1.0000
  C   C36       1.0  0.5409736954278404  0.5712703289360332  0.14957646314980755  1.0000
  C   C37       1.0  0.499236510872176  0.5041083508323656  0.06669470919500364  1.0000
  C   C38       1.0  0.5289490723692158  0.4159192206475677  0.9862593238094388  1.0000
  C   C39       1.0  0.6001234084717437  0.39492540337654347  0.988577523139397  1.0000
  C   C40       1.0  0.4259549046789541  0.5256751802572093  0.06418509731918065  1.0000
  N   N4        1.0  0.367041434765591  0.5430135798157427  0.06216757362652081  1.0000
  H   H22       1.0  0.9610392567875744  0.3675071579003846  0.410269959283986  1.0000
  H   H23       1.0  0.7266183224853294  0.4356241101360956  0.28321930652129357  1.0000
  H   H24       1.0  0.7268560573135073  0.43869464374606393  0.8657431004682228  1.0000
  H   H25       1.0  0.9163602524011051  0.3813610877008906  0.08096843352538174  1.0000
  H   H26       1.0  0.9611465901112931  0.36889515619363933  0.754727131228039  1.0000
  H   H27       1.0  0.6435286854894441  0.6046153891179951  0.21583488591227207  1.0000
  H   H28       1.0  0.5185329401737625  0.6400340276990899  0.21199907375009808  1.0000
  H   H29       1.0  0.4970999740336336  0.3631326623764979  0.9219780466581264  1.0000
  H   H30       1.0  0.6218888427859105  0.32504278788233565  0.9266930727242966  1.0000
  Zn  Zn1       1.0  0.7505366433643291  0.40923090264706397  0.5769165843983934  1.0000
  Zn  Zn2       1.0  0.9013054414807623  0.4067136393052806  0.5788318804073165  1.0000
  C   C41       1.0  0.8259176109350935  0.4027203526134968  0.8150993497197241  1.0000
  C   C42       1.0  0.8259261200185903  0.41322580041616463  0.34064926351082847  1.0000
  C   C43       1.0  0.8258805802381227  0.6451647450676854  0.5727026777581898  1.0000
  C   C44       1.0  0.8259630995323479  0.1707798485064873  0.5830460040400005  1.0000
  O   O1        1.0  0.8831394177772799  0.41398550180816285  0.38976807238268485  1.0000
  O   O2        1.0  0.8831343425704771  0.40004912699885287  0.7674338322923822  1.0000
  O   O3        1.0  0.8831036684811169  0.5958260524639278  0.5716967949110212  1.0000
  O   O4        1.0  0.8831700404203734  0.21820858652446584  0.5855050117237595  1.0000
  O   O5        1.0  0.7686719929747265  0.5977359562883138  0.5702434524215223  1.0000
  O   O6        1.0  0.7687026667973084  0.4019605911391606  0.765980420574818  1.0000
  O   O7        1.0  0.7687077420975211  0.41589692120919985  0.3883130990684178  1.0000
  O   O8        1.0  0.7687383647368901  0.22011999660455883  0.5840501357893506  1.0000
