data_image0
_chemical_formula_structural       NC10NC3NCH9C12SCH12C12ClH9Zn2C4O8
_chemical_formula_sum              "N3 C43 H30 S1 Cl1 Zn2 O8"
_cell_length_a       19.437513618241372
_cell_length_b       10.299776766347529
_cell_length_c       10.299771906710086
_cell_angle_alpha    85.54586025256013
_cell_angle_beta     90.35636607497939
_cell_angle_gamma    89.50378728869872

_space_group_name_H-M_alt    "P 1"
_space_group_IT_number       1

loop_
  _space_group_symop_operation_xyz
  'x, y, z'

loop_
  _atom_site_type_symbol
  _atom_site_label
  _atom_site_symmetry_multiplicity
  _atom_site_fract_x
  _atom_site_fract_y
  _atom_site_fract_z
  _atom_site_occupancy
  N   N1        1.0  0.6474824379880371  0.41087720973008945  0.5757747376815219  1.0000
  C   C1        1.0  0.5885458505276433  0.42788802004759896  0.5728005264494946  1.0000
  C   C2        1.0  0.5151013188125181  0.4491414616236633  0.5691087652811884  1.0000
  C   C3        1.0  0.4733545370023118  0.3479571096472176  0.5574386888390948  1.0000
  C   C4        1.0  0.3974619592459127  0.3580242364733828  0.5502183926112965  1.0000
  C   C5        1.0  0.3578823901479529  0.4388485563133073  0.6159696698485897  1.0000
  C   C6        1.0  0.2817005398726483  0.4302433838001578  0.6075246302015207  1.0000
  C   C7        1.0  0.2485858076399471  0.3088989715202688  0.6121551172242072  1.0000
  C   C8        1.0  0.1768512781146203  0.3025298272072463  0.6049863629585848  1.0000
  C   C9        1.0  0.1372609813728839  0.41703228994136365  0.5935493040687396  1.0000
  C   C10       1.0  0.0634120138496005  0.41032503012442567  0.5862124220292977  1.0000
  N   N2        1.0  0.004042541950119401  0.40493298312623316  0.5803140273391261  1.0000
  C   C11       1.0  0.1696592672700954  0.5380658718611331  0.5896640620465943  1.0000
  C   C12       1.0  0.2413781669572288  0.5446889814079912  0.5968948649093047  1.0000
  C   C13       1.0  0.3865626152638557  0.5310999170254764  0.7058996566750964  1.0000
  N   N3        1.0  0.44353453005823895  0.5943187485681536  0.685502132522859  1.0000
  C   C14       1.0  0.4873615188077035  0.5850984705220341  0.5723933105053949  1.0000
  H   H1        1.0  0.4957525730941852  0.2529067984544404  0.5453073436718339  1.0000
  H   H2        1.0  0.3727513538420555  0.28853418361304484  0.4918927221439937  1.0000
  H   H3        1.0  0.27805244851749844  0.21898464024820896  0.6231664267030457  1.0000
  H   H4        1.0  0.1522737666720197  0.20830372864031244  0.608863520478389  1.0000
  H   H5        1.0  0.1395077645094925  0.6273244708647536  0.5809648363023301  1.0000
  H   H6        1.0  0.2654740865301222  0.6393278783132814  0.5930022914741686  1.0000
  H   H7        1.0  0.3565674542862898  0.5514546755920133  0.7902686817149684  1.0000
  H   H8        1.0  0.5301033190534304  0.6554076594965781  0.5781642042922517  1.0000
  H   H9        1.0  0.4576775289472966  0.6132395227267817  0.48175050786499596  1.0000
  C   C15       1.0  0.8258306584384927  0.026538796274938825  0.5780436743883797  1.0000
  C   C16       1.0  0.8299766805742146  0.01486907710079377  0.7146096701713351  1.0000
  C   C17       1.0  0.8320112630593101  0.891818419277879  0.783813262513614  1.0000
  C   C18       1.0  0.8298451252849403  0.7795834895774508  0.7146231856096348  1.0000
  C   C19       1.0  0.8257009405848476  0.7892612308218637  0.5780564638405021  1.0000
  C   C20       1.0  0.8237165182195603  0.9131771348141545  0.5105311656530271  1.0000
  C   C21       1.0  0.8363897046406843  0.8805372056501227  0.9282845806609399  1.0000
  C   C22       1.0  0.7970200952670208  0.7877120530269869  0.001825690686595216  1.0000
  C   C23       1.0  0.8011613838475745  0.7773292231420893  0.1377870401743263  1.0000
  C   C24       1.0  0.8445008980376415  0.8594953207734637  0.20201176105865737  1.0000
  C   C25       1.0  0.8840348104742866  0.9517435568986019  0.12984580073538976  1.0000
  C   C26       1.0  0.8799944056547111  0.9624745966576859  0.993875320636078  1.0000
  S   S1        1.0  0.8498906104723662  0.8457109190510896  0.37646984406308714  1.0000
  C   C27       1.0  0.7807565590562948  0.9629197325753734  0.3951183235287913  1.0000
  H   H10       1.0  0.8242779030903469  0.35843851972920815  0.5260061753429179  1.0000
  H   H11       1.0  0.8306844638184387  0.10167329257799329  0.7675767479688473  1.0000
  H   H12       1.0  0.8323468018600917  0.6845130468699989  0.7674169658661063  1.0000
  H   H13       1.0  0.8205185088293973  0.9214113308362448  0.4051763126598762  1.0000
  H   H14       1.0  0.8240874697400813  0.4654956909942728  0.5260228575736066  1.0000
  H   H15       1.0  0.7623820425399433  0.724338834047936  0.954270824447986  1.0000
  H   H16       1.0  0.7704060426045926  0.7057638274084553  0.1931167161553724  1.0000
  H   H17       1.0  0.9179407577434673  0.01518440481498673  0.17898027320999998  1.0000
  H   H18       1.0  0.9116182137370635  0.03365616156479012  0.9399697366644588  1.0000
  H   H19       1.0  0.7945253399844848  0.059033791629829135  0.3464161986298012  1.0000
  H   H20       1.0  0.772793377045651  0.9737019521619399  0.5002956967113574  1.0000
  H   H21       1.0  0.7323402137649393  0.9282063613722192  0.35238006257857724  1.0000
  C   C28       1.0  0.8257330238232351  0.40800687974188055  0.19668037488568824  1.0000
  C   C29       1.0  0.8881255838978888  0.4758491133685647  0.19114829819644985  1.0000
  C   C30       1.0  0.9197739702313047  0.5101166062475784  0.07121523837265853  1.0000
  C   C31       1.0  0.8881919884379047  0.4756328458716641  0.9558793632432705  1.0000
  C   C32       1.0  0.8257985433335524  0.4077931868689022  0.9594197727530367  1.0000
  C   C33       1.0  0.794918778333786  0.37435927027183835  0.08029276148500264  1.0000
  C   C34       1.0  0.9857805533949159  0.5818866289653752  0.06641651577917784  1.0000
  C   C35       1.0  0.9966367588734939  0.6847099441045352  0.146358774182904  1.0000
  C   C36       1.0  0.058794719461771505  0.7521604732623708  0.14165512727103313  1.0000
  C   C37       1.0  0.1108017424255876  0.7178229133280103  0.05732852313052872  1.0000
  C   C38       1.0  0.10060220672579634  0.6158481106394758  0.9775234361357055  1.0000
  C   C39       1.0  0.0385059482213026  0.5481962326113332  0.9818522335514404  1.0000
  Cl  Cl1       1.0  0.18874702788469544  0.802573020276836  0.05166285745576338  1.0000
  H   H22       1.0  0.8019401728882971  0.38221319933691356  0.5262370812882087  1.0000
  H   H23       1.0  0.912736878948353  0.5006381240618021  0.2804429032527873  1.0000
  H   H24       1.0  0.9118965058657356  0.5033785282791001  0.8630721085747721  1.0000
  H   H25       1.0  0.7467853719318726  0.3220232367844935  0.08379229620450324  1.0000
  H   H26       1.0  0.802036890280512  0.3818970178233141  0.6333191218683432  1.0000
  H   H27       1.0  0.9567468249237064  0.7140278584910051  0.21122541914548076  1.0000
  H   H28       1.0  0.0663886810399692  0.8313071925625479  0.2033869215215831  1.0000
  H   H29       1.0  0.14080574861903794  0.5886720978031363  0.9123172491780815  1.0000
  H   H30       1.0  0.03205402694734194  0.4684902005503202  0.920354503310119  1.0000
  Zn  Zn1       1.0  0.7503779886166008  0.40915834303933707  0.5770921875337154  1.0000
  Zn  Zn2       1.0  0.9011470002628958  0.40664117735390026  0.5790072472023227  1.0000
  C   C40       1.0  0.825785510376762  0.40265993737329575  0.8152455619986063  1.0000
  C   C41       1.0  0.8257411246278745  0.4131411941048262  0.34085402114395946  1.0000
  C   C42       1.0  0.8257214556962222  0.645091970602973  0.5728788008737251  1.0000
  C   C43       1.0  0.8258051281328453  0.17070760142315633  0.5832208508280172  1.0000
  O   O1        1.0  0.8829598984761204  0.41390339994699565  0.38996676893974214  1.0000
  O   O2        1.0  0.8829969279451274  0.39998628140832326  0.7675859263166456  1.0000
  O   O3        1.0  0.8829444317967463  0.5957532267116641  0.5718730421487122  1.0000
  O   O4        1.0  0.8830123431673048  0.21813646482003457  0.5856795550794867  1.0000
  O   O5        1.0  0.7685125942621267  0.5976630564336041  0.5704198789962047  1.0000
  O   O6        1.0  0.7685650901360115  0.4018976714426561  0.7661326939446147  1.0000
  O   O7        1.0  0.7685280605863175  0.41581474516243544  0.3885119751637036  1.0000
  O   O8        1.0  0.7685805052846334  0.22004780071949526  0.5842248586712901  1.0000
