data_image0
_chemical_formula_structural       NC10NC3NCH9C12SCH12C12BrH9Zn2C4O8
_chemical_formula_sum              "N3 C43 H30 S1 Br1 Zn2 O8"
_cell_length_a       19.437513618241372
_cell_length_b       10.299776766347529
_cell_length_c       10.299148005577397
_cell_angle_alpha    85.55397783742741
_cell_angle_beta     90.32056870964719
_cell_angle_gamma    89.50378728869872

_space_group_name_H-M_alt    "P 1"
_space_group_IT_number       1

loop_
  _space_group_symop_operation_xyz
  'x, y, z'

loop_
  _atom_site_type_symbol
  _atom_site_label
  _atom_site_symmetry_multiplicity
  _atom_site_fract_x
  _atom_site_fract_y
  _atom_site_fract_z
  _atom_site_occupancy
  N   N1        1.0  0.6479549735143227  0.41066663798081726  0.5757100686609367  1.0000
  C   C1        1.0  0.5890193728504051  0.4276770085611039  0.5727357223805207  1.0000
  C   C2        1.0  0.515576066003531  0.44892990431016555  0.569043793582426  1.0000
  C   C3        1.0  0.47383315614101384  0.3477438269125548  0.5573731872435292  1.0000
  C   C4        1.0  0.3979429739652637  0.3578098862176986  0.5501525631676738  1.0000
  C   C5        1.0  0.3583415896283699  0.4386439273860048  0.6159068259373923  1.0000
  C   C6        1.0  0.2821625412843045  0.4300375062734816  0.6074614028310084  1.0000
  C   C7        1.0  0.24904627272888802  0.30869377861124203  0.6120921001076969  1.0000
  C   C8        1.0  0.1773141216833982  0.3023235743976791  0.6049230203343545  1.0000
  C   C9        1.0  0.1377276195777945  0.41682434616228425  0.5934854421282072  1.0000
  C   C10       1.0  0.0638810863164973  0.4101160015871088  0.5861482269469598  1.0000
  N   N2        1.0  0.0045135714115401  0.40472308251107836  0.5802495644315937  1.0000
  C   C11       1.0  0.1701271945371595  0.5378573536489002  0.5896000236909946  1.0000
  C   C12       1.0  0.241843695157708  0.5444815322701857  0.5968311548788308  1.0000
  C   C13       1.0  0.38699197739004354  0.5309085842495196  0.7058408961658174  1.0000
  N   N3        1.0  0.4439706597619056  0.5941244000176169  0.6854424458343136  1.0000
  C   C14       1.0  0.4878351762383062  0.5848873988286496  0.5723284879461883  1.0000
  H   H1        1.0  0.4962352172222798  0.252691722100018  0.5452412912348876  1.0000
  H   H2        1.0  0.3732517201008851  0.28831120990517034  0.4918242443384271  1.0000
  H   H3        1.0  0.2785092602272602  0.21878107536163105  0.6231039095710655  1.0000
  H   H4        1.0  0.1527353238609547  0.20809804906860507  0.6088003539021383  1.0000
  H   H5        1.0  0.13997857804274222  0.627114666471724  0.5809004029457263  1.0000
  H   H6        1.0  0.2659409062252024  0.6391198536583729  0.5929384046957333  1.0000
  H   H7        1.0  0.3569688240978457  0.551275816779029  0.7902137521040464  1.0000
  H   H8        1.0  0.5305750617923021  0.6551974410300192  0.5780996437688755  1.0000
  H   H9        1.0  0.45818126023319644  0.613015049492212  0.48168156953743124  1.0000
  C   C15       1.0  0.8263024411672898  0.02632855998802941  0.5779791083921677  1.0000
  C   C16       1.0  0.8304031528550107  0.014679032100603173  0.714551305152894  1.0000
  C   C17       1.0  0.8324147746773557  0.8916386060309657  0.7837580397849895  1.0000
  C   C18       1.0  0.8302715930815263  0.7793934465755179  0.7145648212048819  1.0000
  C   C19       1.0  0.8261727190703059  0.7890509964258753  0.5779918984250139  1.0000
  C   C20       1.0  0.8242107005361823  0.9129569168007317  0.510463534153111  1.0000
  C   C21       1.0  0.8367452829491897  0.8803787524920847  0.9282359178627517  1.0000
  C   C22       1.0  0.7973512737926765  0.7875644729243504  0.001780367129526006  1.0000
  C   C23       1.0  0.8014474525373535  0.777201744929198  0.13774789014018318  1.0000
  C   C24       1.0  0.844765657975858  0.8593773381875495  0.20197552724142653  1.0000
  C   C25       1.0  0.884323513942325  0.9516149045732126  0.1298062901177135  1.0000
  C   C26       1.0  0.8803282219880194  0.9623258410925906  0.9938296360808869  1.0000
  S   S1        1.0  0.8500974879644219  0.8456187300981667  0.3764415317689883  1.0000
  C   C27       1.0  0.7809572492763704  0.9628303008007189  0.39509085799604016  1.0000
  H   H10       1.0  0.8247669510423136  0.358220589696449  0.5259392465083359  1.0000
  H   H11       1.0  0.8310933624564653  0.10149107876190011  0.7675207879976522  1.0000
  H   H12       1.0  0.8327557535113054  0.6843308094301169  0.7673609986397725  1.0000
  H   H13       1.0  0.8210476462280722  0.9211755361045344  0.4051038973695471  1.0000
  H   H14       1.0  0.8245765121571467  0.46527776342798177  0.5259559294965059  1.0000
  H   H15       1.0  0.7627289990217555  0.7241842229568491  0.9542233415930126  1.0000
  H   H16       1.0  0.7706737537787097  0.7056445296898765  0.1930800784456833  1.0000
  H   H17       1.0  0.9182131591668616  0.015063017022878933  0.17894299361454746  1.0000
  H   H18       1.0  0.9119699150947186  0.03349943605743033  0.9399216044477838  1.0000
  H   H19       1.0  0.7947421888030838  0.05893715924449583  0.3463865217061972  1.0000
  H   H20       1.0  0.7729591710686816  0.9736280708651772  0.500273006910291  1.0000
  H   H21       1.0  0.7325550838673446  0.9281106107443559  0.35235065645289454  1.0000
  C   C28       1.0  0.8263313368925647  0.407740258879294  0.19659849253389794  1.0000
  C   C29       1.0  0.7616064111355118  0.4695984470227754  0.19033855922605492  1.0000
  C   C30       1.0  0.7286926251209047  0.5009102205649454  0.07002513910913777  1.0000
  C   C31       1.0  0.7613768021089969  0.4695294701181738  0.955058599664524  1.0000
  C   C32       1.0  0.826143788812758  0.40763931432064093  0.9593724562150574  1.0000
  C   C33       1.0  0.8582221130015861  0.37712383443581987  0.08056108114415661  1.0000
  C   C34       1.0  0.6602219566327987  0.5663506419196553  0.06444780768965352  1.0000
  C   C35       1.0  0.6457529909984552  0.6679086714581528  0.14434352105614146  1.0000
  C   C36       1.0  0.5812773349920435  0.7293918507051953  0.13889891616516903  1.0000
  C   C37       1.0  0.5305377383910698  0.6902943036579794  0.05388752179632306  1.0000
  C   C38       1.0  0.5443155555407677  0.5895346535249375  0.974130558569859  1.0000
  C   C39       1.0  0.6087327566477428  0.5278304852713784  0.9791818765861531  1.0000
  Br  Br1       1.0  0.4425044624382786  0.774431669305055  0.04671804662914125  1.0000
  H   H22       1.0  0.8512413726250232  0.3839993846645142  0.5264780006340939  1.0000
  H   H23       1.0  0.7362150548958112  0.4919677434688525  0.2793552137755695  1.0000
  H   H24       1.0  0.7366641382917563  0.49503614541620156  0.8619279687890673  1.0000
  H   H25       1.0  0.9081470589292951  0.3294149918566931  0.08467349485730735  1.0000
  H   H26       1.0  0.9485800606949424  0.2915569223730887  0.7601681953914747  1.0000
  H   H27       1.0  0.6845676633421156  0.7008784586403274  0.20974590588854536  1.0000
  H   H28       1.0  0.5708744546254133  0.8076308819030518  0.20057244915926065  1.0000
  H   H29       1.0  0.5050935232762441  0.558723623375668  0.9084160270469348  1.0000
  H   H30       1.0  0.617984510901027  0.448921357653957  0.9176947690163861  1.0000
  Zn  Zn1       1.0  0.7508500870337605  0.4089479660750668  0.5770275783338583  1.0000
  Zn  Zn2       1.0  0.9016184632933987  0.40643108353126145  0.5789427249585364  1.0000
  C   C40       1.0  0.8261785932525488  0.40248477139283745  0.8151917664992803  1.0000
  C   C41       1.0  0.8262916031505115  0.4128958893203172  0.3407786852063812  1.0000
  C   C42       1.0  0.826194952048762  0.6448809706893548  0.5728140003589153  1.0000
  C   C43       1.0  0.8262751931559826  0.1704981305819444  0.5831565199090352  1.0000
  O   O1        1.0  0.8834940821620201  0.4136653564837738  0.38989366303794637  1.0000
  O   O2        1.0  0.8834058235379226  0.3998040689492488  0.7675299667622069  1.0000
  O   O3        1.0  0.8834182618442014  0.5955420780965863  0.571808195965964  1.0000
  O   O4        1.0  0.8834815924310689  0.2179273574983227  0.585615335801549  1.0000
  O   O5        1.0  0.7689869064462446  0.5974516929683091  0.5703549668304688  1.0000
  O   O6        1.0  0.7689744678884355  0.4017152441231304  0.766076668404045  1.0000
  O   O7        1.0  0.769062726949895  0.4155764866079088  0.3884388032048798  1.0000
  O   O8        1.0  0.7690502371937704  0.21983847832087444  0.5841605733407456  1.0000
