data_image0
_chemical_formula_structural       NC11NC3H8C12SCH12C13NH9Zn2C4O8
_chemical_formula_sum              "N3 C44 H29 S1 Zn2 O8"
_cell_length_a       17.807433833752565
_cell_length_b       10.299776766347529
_cell_length_c       10.298528502251457
_cell_angle_alpha    85.54283687761513
_cell_angle_beta     88.52196449538943
_cell_angle_gamma    90.66624570658541

_space_group_name_H-M_alt    "P 1"
_space_group_IT_number       1

loop_
  _space_group_symop_operation_xyz
  'x, y, z'

loop_
  _atom_site_type_symbol
  _atom_site_label
  _atom_site_symmetry_multiplicity
  _atom_site_fract_x
  _atom_site_fract_y
  _atom_site_fract_z
  _atom_site_occupancy
  N   N1        1.0  0.7071848944787397  0.43894242061120203  0.534537479900753  1.0000
  C   C1        1.0  0.6563700973947196  0.40419401115714937  0.6011064081864375  1.0000
  C   C2        1.0  0.5931513638916791  0.3609698550621583  0.6839096597821486  1.0000
  C   C3        1.0  0.6048870208580256  0.29737965555435597  0.8066402274589399  1.0000
  C   C4        1.0  0.5435754294314524  0.25583601018761937  0.8871593444201016  1.0000
  C   C5        1.0  0.47037387454426277  0.27756908666157565  0.8455887535581923  1.0000
  C   C6        1.0  0.45766140779368075  0.34131398898037957  0.7223979398122806  1.0000
  C   C7        1.0  0.3798914608149356  0.364378092662633  0.678046418595003  1.0000
  C   C8        1.0  0.3611144582022393  0.34754950508046867  0.5484497727507942  1.0000
  C   C9        1.0  0.2878829691493425  0.3692438689784019  0.506835103466017  1.0000
  C   C10       1.0  0.23248537164158117  0.40808561691015877  0.5939967203993923  1.0000
  C   C11       1.0  0.1571170752495859  0.43043888994387003  0.5510206202683734  1.0000
  N   N2        1.0  0.0965263386173656  0.4484092608197825  0.5164709635536913  1.0000
  C   C12       1.0  0.2505707858334643  0.42512495551238016  0.7230621769890151  1.0000
  C   C13       1.0  0.3237495128512932  0.40339557677835813  0.7649323048708614  1.0000
  C   C14       1.0  0.5198303115155376  0.38285306400350927  0.6418952404652354  1.0000
  H   H1        1.0  0.6613551534343247  0.2799543229727568  0.8400090615995837  1.0000
  H   H2        1.0  0.5527801769061136  0.20635291216601526  0.9819048377767994  1.0000
  H   H3        1.0  0.423739332285061  0.24299244639363216  0.9090340293383428  1.0000
  H   H4        1.0  0.40280050659249445  0.31593123870769646  0.4797236887116385  1.0000
  H   H5        1.0  0.2744467222476054  0.35539686046344054  0.40678797624262253  1.0000
  H   H6        1.0  0.2081681945161703  0.4555203900260034  0.7912733801248668  1.0000
  H   H7        1.0  0.3366570455195166  0.4187880269809712  0.8647967195768751  1.0000
  H   H8        1.0  0.5113237825672248  0.4336984109430202  0.5473841475840426  1.0000
  C   C15       1.0  0.9019300416880576  0.06231251186193698  0.5254991497854686  1.0000
  C   C16       1.0  0.9064406188886905  0.05081437137185185  0.6618201003591151  1.0000
  C   C17       1.0  0.9086538337269903  0.9278477905355286  0.7309037266503144  1.0000
  C   C18       1.0  0.9062969668582435  0.8155230969638357  0.6618419583769997  1.0000
  C   C19       1.0  0.9017883961140976  0.8250293389830163  0.5255201652260866  1.0000
  C   C20       1.0  0.899629748744737  0.9488632403566011  0.45811187184284896  1.0000
  C   C21       1.0  0.9134172363586966  0.9167477600878913  0.8751162953156741  1.0000
  C   C22       1.0  0.8704190605719955  0.8222168553926569  0.9511630973426004  1.0000
  C   C23       1.0  0.8749245426345847  0.8120054333436298  0.08687962284129147  1.0000
  C   C24       1.0  0.922240840125105  0.896041182557996  0.14836492919061728  1.0000
  C   C25       1.0  0.9654182574497212  0.9900021955701879  0.073683039219272  1.0000
  C   C26       1.0  0.9610229354378783  0.0005661884374448256  0.9379509857255786  1.0000
  S   S1        1.0  0.9281048381642409  0.8824799998732697  0.32250405921704195  1.0000
  C   C27       1.0  0.8526123828943395  0.9966996355708718  0.3455381815570764  1.0000
  H   H9        1.0  0.9002408628161691  0.39414802594191234  0.4735533080237515  1.0000
  H   H10       1.0  0.9072070263708907  0.13764622265044157  0.7147492147499896  1.0000
  H   H11       1.0  0.909022217991921  0.7205578360369647  0.7144840169039972  1.0000
  H   H12       1.0  0.8961505438702558  0.9569650910508738  0.3529460309861068  1.0000
  H   H13       1.0  0.9000329191339446  0.5011969652966906  0.47358206621061516  1.0000
  H   H14       1.0  0.8326022008705368  0.7573491521497492  0.9057981341386596  1.0000
  H   H15       1.0  0.8413348416681886  0.7391076309916608  0.14416645618296908  1.0000
  H   H16       1.0  0.0024355101412680824  0.0549057962604409  0.12067423142624412  1.0000
  H   H17       1.0  0.9955607760546943  0.07311761766784741  0.8820333680211194  1.0000
  H   H18       1.0  0.8676529848840665  0.09341153208012432  0.2959567392003277  1.0000
  H   H19       1.0  0.843904266323702  0.007131797336136669  0.4512341568595921  1.0000
  H   H20       1.0  0.7997498782079101  0.9598959809250417  0.3058640179360649  1.0000
  C   C28       1.0  0.9018698622226069  0.4437976604369325  0.1440922798985682  1.0000
  C   C29       1.0  0.8237643894232038  0.46176025933837095  0.1452268794930256  1.0000
  C   C30       1.0  0.7841954927389232  0.47072201173617634  0.028654936133690745  1.0000
  C   C31       1.0  0.8237420125231314  0.4614948587066705  0.9099682092204797  1.0000
  C   C32       1.0  0.9018485523258629  0.4435441652658081  0.9069269833961826  1.0000
  C   C33       1.0  0.9404123370388243  0.4348077516992408  0.024479062372789295  1.0000
  C   C34       1.0  0.701622299376287  0.4897063687468606  0.03086210769201747  1.0000
  C   C35       1.0  0.6684364689085637  0.57682955363645  0.11331973738719259  1.0000
  C   C36       1.0  0.5907104154367082  0.5946524898205912  0.11527786426734776  1.0000
  C   C37       1.0  0.5451359451132731  0.525686532018101  0.035042314672675934  1.0000
  C   C38       1.0  0.5775802574595956  0.4387816489216325  0.9527231052912852  1.0000
  C   C39       1.0  0.6552983091927861  0.42086415456920134  0.9505287376973097  1.0000
  C   C40       1.0  0.46511688244141436  0.5440859573337049  0.03717887402019859  1.0000
  N   N3        1.0  0.4007869518339424  0.5588779775702408  0.03889655869424846  1.0000
  H   H21       1.0  0.04939649270561852  0.40904554453267994  0.3493385309031931  1.0000
  H   H22       1.0  0.7934230717073489  0.4670302702906717  0.2371505408970056  1.0000
  H   H23       1.0  0.793682663699166  0.47011107936143826  0.8196592620749983  1.0000
  H   H24       1.0  0.0006097338197605939  0.4209683422327606  0.022869725594531154  1.0000
  H   H25       1.0  0.04951369417544993  0.41043818202570437  0.6937888977425848  1.0000
  H   H26       1.0  0.7026942351610411  0.6324302189056834  0.17503413637582188  1.0000
  H   H27       1.0  0.5662064738016791  0.6624462461369884  0.17912325469886525  1.0000
  H   H28       1.0  0.5428029766636834  0.38461849739361753  0.8904611119939068  1.0000
  H   H29       1.0  0.6790648413819595  0.3519222925555374  0.8872643238803777  1.0000
  Zn  Zn1       1.0  0.8195404252541018  0.441670869124587  0.5293313589153279  1.0000
  Zn  Zn2       1.0  0.9841707947581422  0.4456701893500359  0.5216876716053  1.0000
  C   C41       1.0  0.9018518630302605  0.43841846255764305  0.7627348501389843  1.0000
  C   C42       1.0  0.9018611544325781  0.44892427814299785  0.2882842244405648  1.0000
  C   C43       1.0  0.901811427758497  0.6808612544576433  0.5203405259829583  1.0000
  C   C44       1.0  0.9019015338153819  0.20647992457524977  0.5306786204093259  1.0000
  O   O1        1.0  0.9643346003194632  0.45215687340069843  0.3337756185838425  1.0000
  O   O2        1.0  0.9643290585019142  0.43822027922896245  0.7114417002697817  1.0000
  O   O3        1.0  0.9642955642595467  0.6339958788874447  0.5157066076748231  1.0000
  O   O4        1.0  0.9643680383856327  0.25638128169996555  0.5295106164002905  1.0000
  O   O5        1.0  0.8393431254463459  0.6309597754113014  0.5215084167219206  1.0000
  O   O6        1.0  0.8393766193974076  0.43518573605721156  0.7172434401057277  1.0000
  O   O7        1.0  0.8393821613169548  0.44912228549371314  0.33957579681716377  1.0000
  O   O8        1.0  0.839415599379057  0.2533466844718759  0.5353108920137062  1.0000
