data_image0
_chemical_formula_structural       NC8NC6H8C12NCOCH13C13F3H9Zn2C4O8
_chemical_formula_sum              "N3 C45 H30 O9 F3 Zn2"
_cell_length_a       17.457602349358154
_cell_length_b       10.299155265289647
_cell_length_c       10.2985328690268
_cell_angle_alpha    85.56203192291568
_cell_angle_beta     92.88104695485512
_cell_angle_gamma    91.66712233072684

_space_group_name_H-M_alt    "P 1"
_space_group_IT_number       1

loop_
  _space_group_symop_operation_xyz
  'x, y, z'

loop_
  _atom_site_type_symbol
  _atom_site_label
  _atom_site_symmetry_multiplicity
  _atom_site_fract_x
  _atom_site_fract_y
  _atom_site_fract_z
  _atom_site_occupancy
  N   N1        1.0  0.7220191572065356  0.4524784043841068  0.6259376922396169  1.0000
  C   C1        1.0  0.6609509311767279  0.4065470795555275  0.6153355753191416  1.0000
  C   C2        1.0  0.5849794742296559  0.3494142292410507  0.6021560827991645  1.0000
  C   C3        1.0  0.5264461473423376  0.38960243278031204  0.677047147688379  1.0000
  C   C4        1.0  0.45191233262918246  0.3345881668841446  0.664481475652567  1.0000
  C   C5        1.0  0.3897878607897532  0.37702106727149065  0.7437939940146094  1.0000
  C   C6        1.0  0.31523382535148564  0.3954727059447809  0.6880201759545226  1.0000
  C   C7        1.0  0.2567005431893748  0.435477007722046  0.7630192611433819  1.0000
  C   C8        1.0  0.1807080882938345  0.4545338259134284  0.7050296128466751  1.0000
  N   N2        1.0  0.1196230725074821  0.46984912771417253  0.6584060886851444  1.0000
  C   C9        1.0  0.2722291085017393  0.45727298945234285  0.8943006463891303  1.0000
  C   C10       1.0  0.345998374909216  0.43921048450300426  0.9504619712927043  1.0000
  C   C11       1.0  0.404520038133455  0.39938639420567146  0.8759205875871863  1.0000
  C   C12       1.0  0.4372005600846973  0.23870777929851172  0.5755919169267187  1.0000
  C   C13       1.0  0.49572212930966525  0.19879840025446915  0.5011007998191837  1.0000
  C   C14       1.0  0.5694711848825856  0.25392522444890364  0.5142164305690888  1.0000
  H   H1        1.0  0.5387771392386688  0.4648225361386462  0.7436595470788288  1.0000
  H   H2        1.0  0.3028862942955582  0.3804688851515696  0.585992191102219  1.0000
  H   H3        1.0  0.2273645957345014  0.48817641751478424  0.9531314968473212  1.0000
  H   H4        1.0  0.3578318233421749  0.4557719381819121  0.05211617501793653  1.0000
  H   H5        1.0  0.4610116850184298  0.38440845899733467  0.92203547554076  1.0000
  H   H6        1.0  0.38072547748401  0.19336614586080159  0.564953494512868  1.0000
  H   H7        1.0  0.4839046270912558  0.12469444075345715  0.433289631077479  1.0000
  H   H8        1.0  0.6143359665241516  0.22215221071993163  0.4558970201225525  1.0000
  C   C15       1.0  0.9209104771949892  0.07977020458098094  0.6422979022363697  1.0000
  C   C16       1.0  0.9077972533391093  0.08886695680766454  0.5062924686684585  1.0000
  C   C17       1.0  0.901074262704767  0.9763382455711765  0.4372110485195979  1.0000
  C   C18       1.0  0.9076137941485571  0.8535991027461233  0.505969681061853  1.0000
  C   C19       1.0  0.9207391131970424  0.8425476635360636  0.6420576985867186  1.0000
  C   C20       1.0  0.9273100635801717  0.9561468831534584  0.7093842732260656  1.0000
  C   C21       1.0  0.8872030023444527  0.9869352217050051  0.2933337997107288  1.0000
  C   C22       1.0  0.9261065304960039  0.0827273912770321  0.2150873871163428  1.0000
  C   C23       1.0  0.9130590733547184  0.09256924248306042  0.07968982507677835  1.0000
  C   C24       1.0  0.8613242350496491  0.0059541225604828885  0.01971069730007824  1.0000
  C   C25       1.0  0.8214835695239106  0.9119372811121851  0.09781241890275671  1.0000
  C   C26       1.0  0.8345589672287559  0.9018406227390782  0.23317492450102084  1.0000
  N   N3        1.0  0.8458076591880509  0.015486177622544561  0.8808729524291006  1.0000
  C   C27       1.0  0.9018207697867854  0.05484764683583565  0.7872224071100744  1.0000
  O   O1        1.0  0.9722046200473258  0.06046320896576862  0.8208303237081789  1.0000
  C   C28       1.0  0.8773375063038874  0.08019348311028551  0.6466735401555144  1.0000
  H   H9        1.0  0.9259781975395043  0.40374843054260556  0.69460765947245  1.0000
  H   H10       1.0  0.901724311888441  0.1836350367912014  0.4539832969564723  1.0000
  H   H11       1.0  0.9034837421430209  0.7666077011030633  0.45300029775699313  1.0000
  H   H12       1.0  0.937427149881619  0.9484156156914367  0.814287871742295  1.0000
  H   H13       1.0  0.9459718562325137  0.6144253734808862  0.8988233993744403  1.0000
  H   H14       1.0  0.9670761598813162  0.1495747088586208  0.25852809143377065  1.0000
  H   H15       1.0  0.9424879253455717  0.16929712337459257  0.022508396475673598  1.0000
  H   H16       1.0  0.780440263330927  0.8457905992118826  0.05349860167104992  1.0000
  H   H17       1.0  0.8026649318263639  0.8286215781100196  0.2909880514188141  1.0000
  H   H18       1.0  0.7917694309941808  0.9842497370323446  0.8453845702875693  1.0000
  H   H19       1.0  0.8219565916383821  0.13121864105971226  0.6376971755522072  1.0000
  H   H20       1.0  0.8702355793161214  0.9862633650839908  0.6008663704944035  1.0000
  H   H21       1.0  0.9210094837321633  0.14218020506569173  0.5948406446574737  1.0000
  C   C29       1.0  0.920802759117085  0.4610359994508315  0.26077856246438946  1.0000
  C   C30       1.0  0.9977417399491887  0.4235029390471561  0.2692866491601893  1.0000
  C   C31       1.0  0.03672727121859576  0.4046033303238079  0.1564268676624303  1.0000
  C   C32       1.0  0.9977869749120852  0.4237605510688276  0.03398959072752583  1.0000
  C   C33       1.0  0.9208468012268407  0.4612818536552916  0.02357706087032918  1.0000
  C   C34       1.0  0.8828460474418277  0.4796747941003594  0.13750911974731994  1.0000
  C   C35       1.0  0.11807009292494475  0.3649341215475881  0.16635637559748107  1.0000
  C   C36       1.0  0.17103239297490713  0.42185247601836506  0.07912343002385636  1.0000
  C   C37       1.0  0.2475868705126858  0.3846205595483059  0.08848988222293541  1.0000
  C   C38       1.0  0.2725724729395558  0.2883088237948166  0.1840306008899082  1.0000
  C   C39       1.0  0.2200538604282154  0.233229033643777  0.2728765655258334  1.0000
  C   C40       1.0  0.14350436954893087  0.2704942254009881  0.26362143171601793  1.0000
  C   C41       1.0  0.3557619805686405  0.25165370198624304  0.19711934326992053  1.0000
  F   F1        1.0  0.3950892961140102  0.3326923097904644  0.2797919786517671  1.0000
  F   F2        1.0  0.3884325497604608  0.26425502597290706  0.07692670428659865  1.0000
  F   F3        1.0  0.36289579194306065  0.12383473525864264  0.24762597705484768  1.0000
  H   H22       1.0  0.7755627452446867  0.5327844924363954  0.45197505475944855  1.0000
  H   H23       1.0  0.027789320063477785  0.41065507567158366  0.36382354269043393  1.0000
  H   H24       1.0  0.02725514258735684  0.4076651557555222  0.9467704423696781  1.0000
  H   H25       1.0  0.8235474044198533  0.5085970054527262  0.13021862616843838  1.0000
  H   H26       1.0  0.7753173611364989  0.5314340489038043  0.796621142491095  1.0000
  H   H27       1.0  0.15353253922849963  0.49685781916933847  0.0049426339421441146  1.0000
  H   H28       1.0  0.2873518643418156  0.43158747874477  0.02123840203646421  1.0000
  H   H29       1.0  0.23816642749902006  0.16114220932001144  0.3495494164482327  1.0000
  H   H30       1.0  0.10401548954526274  0.22449346678979776  0.33191485349910343  1.0000
  Zn  Zn1       1.0  0.8367590596929807  0.4574877393968182  0.6353148702594371  1.0000
  Zn  Zn2       1.0  0.004883158777750252  0.46482914761637106  0.6490395473914772  1.0000
  C   C42       1.0  0.9208379293373141  0.45606127569604604  0.8793932930799633  1.0000
  C   C43       1.0  0.9208061246825028  0.46625733025226834  0.40496140140457015  1.0000
  C   C44       1.0  0.9207672355659459  0.6983646177978131  0.6369272074804122  1.0000
  C   C45       1.0  0.9208767614394764  0.22395242526370907  0.6474275520563391  1.0000
  O   O2        1.0  0.9846094748866965  0.4707900166162393  0.45855892450844205  1.0000
  O   O3        1.0  0.9846368804101745  0.45709956839541666  0.8362121087846555  1.0000
  O   O4        1.0  0.9845789342892947  0.6527625443648593  0.6404189585366697  1.0000
  O   O5        1.0  0.984667363630499  0.27512704740111316  0.6543519726877873  1.0000
  O   O6        1.0  0.8569747974677274  0.6471898371082259  0.630002440272736  1.0000
  O   O7        1.0  0.8570327432304975  0.4515284215217239  0.8257955207781138  1.0000
  O   O8        1.0  0.8570053376780485  0.4652188239826214  0.44814077499545424  1.0000
  O   O9        1.0  0.8570632264264235  0.2695558455093281  0.6439339205530494  1.0000
