data_image0
_chemical_formula_structural       NC12NC2H8C13OH12C15H12Zn2C4O8
_chemical_formula_sum              "N2 C46 H32 O9 Zn2"
_cell_length_a       19.240039667572717
_cell_length_b       10.299150109392551
_cell_length_c       10.299157797200024
_cell_angle_alpha    85.5240492146119
_cell_angle_beta     90.02248165465589
_cell_angle_gamma    89.97992514300192

_space_group_name_H-M_alt    "P 1"
_space_group_IT_number       1

loop_
  _space_group_symop_operation_xyz
  'x, y, z'

loop_
  _atom_site_type_symbol
  _atom_site_label
  _atom_site_symmetry_multiplicity
  _atom_site_fract_x
  _atom_site_fract_y
  _atom_site_fract_z
  _atom_site_occupancy
  N   N1        1.0  0.6539094489474475  0.42179997096432764  0.5669028642124883  1.0000
  C   C1        1.0  0.5937610800971932  0.4218000549758818  0.566902782243349  1.0000
  C   C2        1.0  0.5189430429051738  0.4218001723104863  0.5669026448923251  1.0000
  C   C3        1.0  0.4825031531346726  0.3572999252456064  0.6703417675180265  1.0000
  C   C4        1.0  0.40983244402311303  0.3571890101791311  0.670428350884761  1.0000
  C   C5        1.0  0.37261080790263523  0.4218002649486634  0.566902417166937  1.0000
  C   C6        1.0  0.4097648501751616  0.48641170666340794  0.4633766779409314  1.0000
  C   C7        1.0  0.4824355776972515  0.48630055604334  0.46346338389183184  1.0000
  C   C8        1.0  0.2954057174577198  0.4218001863087184  0.5669023217710787  1.0000
  C   C9        1.0  0.258247957682114  0.30851827751603733  0.6088120496270979  1.0000
  C   C10       1.0  0.18557723005120358  0.3086252126229596  0.6087206842692994  1.0000
  C   C11       1.0  0.1490734305715581  0.42180005710795054  0.5669023827266286  1.0000
  C   C12       1.0  0.0742553934901943  0.42179994328424875  0.5669026314389989  1.0000
  N   N2        1.0  0.014107076689546298  0.42179990239728915  0.5669028398840132  1.0000
  C   C13       1.0  0.1855171419231845  0.5349749774418773  0.5250840282656033  1.0000
  C   C14       1.0  0.25818779882632886  0.5350820927310591  0.5249925002454539  1.0000
  H   H1        1.0  0.5102443487651658  0.3073622354881256  0.7511039599444422  1.0000
  H   H2        1.0  0.3827655515595203  0.3080491470714166  0.7523058601387058  1.0000
  H   H3        1.0  0.38264521183486616  0.535551596840393  0.3814991178267917  1.0000
  H   H4        1.0  0.510124153606601  0.5362381454506735  0.3827014673096909  1.0000
  H   H5        1.0  0.2853645097813952  0.21934676955455945  0.6400102407758883  1.0000
  H   H6        1.0  0.1578857133125157  0.22035265819091632  0.6409516146847745  1.0000
  H   H7        1.0  0.15777883522174357  0.6232475073309025  0.4928531124093365  1.0000
  H   H8        1.0  0.2852577255199943  0.6242536798884064  0.4937942642969473  1.0000
  C   C15       1.0  0.8340771370154839  0.04040026149612075  0.5670469693616231  1.0000
  C   C16       1.0  0.832825809922424  0.028556336172838925  0.7038654940023692  1.0000
  C   C17       1.0  0.83213082998075  0.9054166912688898  0.7729716806605955  1.0000
  C   C18       1.0  0.8326917309832595  0.7933010970075545  0.7035020783326156  1.0000
  C   C19       1.0  0.8339460669131671  0.8031895910436503  0.5667699575854375  1.0000
  C   C20       1.0  0.8346333512426696  0.9271993562524369  0.49934145502496907  1.0000
  C   C21       1.0  0.8308009888364601  0.8938689377728122  0.9176200391321916  1.0000
  C   C22       1.0  0.788078098626444  0.800968941286052  0.9856453329812223  1.0000
  C   C23       1.0  0.7868036930107062  0.7901839260916298  0.12175929374425165  1.0000
  C   C24       1.0  0.8286849995745383  0.8711395544435324  0.19230859855455307  1.0000
  C   C25       1.0  0.8707430800972719  0.9649929989291255  0.12492591303293599  1.0000
  C   C26       1.0  0.8720336190852183  0.9759538112369441  0.9888116635374298  1.0000
  C   C27       1.0  0.8258541358455893  0.861904661084235  0.33840319393849416  1.0000
  O   O1        1.0  0.7739153428591298  0.9450683862774512  0.37864615231603715  1.0000
  H   H9        1.0  0.8359875324153311  0.27004906158347386  0.3087955926970303  1.0000
  H   H10       1.0  0.8314252471737756  0.1153129859293307  0.7568770920683998  1.0000
  H   H11       1.0  0.833099439164234  0.6981618229027634  0.756338603460204  1.0000
  H   H12       1.0  0.8355988914044045  0.9355428561578124  0.39387587894380216  1.0000
  H   H13       1.0  0.8343817484668531  0.4795175846664266  0.5141779884941193  1.0000
  H   H14       1.0  0.7548286331284042  0.7379769225772347  0.9335336758126598  1.0000
  H   H15       1.0  0.753004831383204  0.7188382455458129  0.17213773144220945  1.0000
  H   H16       1.0  0.9027124743612644  0.02953775004339132  0.17778381868978288  1.0000
  H   H17       1.0  0.9058559381241577  0.0477446675805937  0.9392399150605679  1.0000
  H   H18       1.0  0.8769865557402314  0.8897210279494014  0.3785754800417094  1.0000
  H   H19       1.0  0.8145672573444178  0.759871306354285  0.3762179323694784  1.0000
  H   H20       1.0  0.774193183869784  0.9353603266681386  0.4752783387651932  1.0000
  C   C28       1.0  0.833931000318094  0.4219012091258898  0.18551638647823787  1.0000
  C   C29       1.0  0.7615418154308159  0.40392040848404775  0.18569808959603207  1.0000
  C   C30       1.0  0.724987197720635  0.3946946190466729  0.068647936089125  1.0000
  C   C31       1.0  0.7617483571419036  0.40371165992682445  0.9504308707471534  1.0000
  C   C32       1.0  0.8340921781616698  0.4216886655517378  0.9483004857879509  1.0000
  C   C33       1.0  0.8697610592408501  0.43067270358237475  0.06637357138897215  1.0000
  C   C34       1.0  0.6484556172190122  0.3756902425429991  0.06988633347092721  1.0000
  C   C35       1.0  0.6171971838904456  0.28870425300418634  0.9888108881644317  1.0000
  C   C36       1.0  0.5451777442468525  0.2709133948095004  0.9900084973054217  1.0000
  C   C37       1.0  0.5031341138327512  0.33909936645928784  0.0728138237138698  1.0000
  C   C38       1.0  0.5340204447056274  0.42693097089191556  0.15291224665240755  1.0000
  C   C39       1.0  0.6060391828588564  0.4447260277793945  0.15186258671393205  1.0000
  C   C40       1.0  0.4255484087600341  0.3222828708872989  0.07175698577629674  1.0000
  C   C41       1.0  0.3942746301302696  0.4160578218583797  0.9743120280755666  1.0000
  C   C42       1.0  0.3685722387227792  0.49316890059483676  0.8941853268745326  1.0000
  H   H21       1.0  0.9706172234830163  0.45504425847582297  0.39252838101718224  1.0000
  H   H22       1.0  0.733587622414946  0.395294862232062  0.27723896045518504  1.0000
  H   H23       1.0  0.7336935643294177  0.39847321180831696  0.8598004732858451  1.0000
  H   H24       1.0  0.9255620385199316  0.44453513054732263  0.06544607617836729  1.0000
  H   H25       1.0  0.8619208975467967  0.4285617843021554  0.6200087190081662  1.0000
  H   H26       1.0  0.6485302261450852  0.23333421449921765  0.9254588992797492  1.0000
  H   H27       1.0  0.5221784184579552  0.2037523190439483  0.9264737612602265  1.0000
  H   H28       1.0  0.5022815735313122  0.4819918061018944  0.21591934862708362  1.0000
  H   H29       1.0  0.6284712622724834  0.5139945001803801  0.21375531659046376  1.0000
  H   H30       1.0  0.4116943765088146  0.22203464706852083  0.0483481423052996  1.0000
  H   H31       1.0  0.4034216854730392  0.3377290456077877  0.16897269714635677  1.0000
  H   H32       1.0  0.3460272170062809  0.5608698044565406  0.8238413951314607  1.0000
  Zn  Zn1       1.0  0.7578547149667872  0.4217964816090287  0.5669103473315855  1.0000
  Zn  Zn2       1.0  0.9101618335017659  0.42179279446468354  0.5669059601558577  1.0000
  C   C43       1.0  0.8340610696925098  0.4165547658037041  0.8041198627629318  1.0000
  C   C44       1.0  0.8339571417103934  0.4270361489460033  0.3296965715556206  1.0000
  C   C45       1.0  0.833966170164498  0.6590076515518295  0.5616468145422719  1.0000
  C   C46       1.0  0.8340519895493943  0.18458170275139207  0.5721696895873365  1.0000
  O   O2        1.0  0.8917656737028866  0.42875241620734084  0.3780830959174051  1.0000
  O   O3        1.0  0.8918501166105836  0.4148347203877476  0.7557296351234035  1.0000
  O   O4        1.0  0.8917727051585642  0.6106184915072057  0.5599309326801505  1.0000
  O   O5        1.0  0.8918430331606272  0.2329686544072429  0.5738817009782016  1.0000
  O   O6        1.0  0.7761734633329798  0.6106206216691439  0.5599346065039066  1.0000
  O   O7        1.0  0.7762508744990636  0.4148384109988441  0.7557332391307687  1.0000
  O   O8        1.0  0.7761664313153713  0.4287560619938655  0.3780851384457362  1.0000
  O   O9        1.0  0.7762437907924444  0.2329722908770806  0.5738838408836544  1.0000
