data_image0
_chemical_formula_structural       NC10NC5H10C12NCOCH13C12NCOCH13Zn2C4O8
_chemical_formula_sum              "N4 C47 H36 O10 Zn2"
_cell_length_a       19.4436361288709
_cell_length_b       10.299155265289647
_cell_length_c       10.299158637457994
_cell_angle_alpha    85.56442242627145
_cell_angle_beta     89.6864852280966
_cell_angle_gamma    89.39615277754326

_space_group_name_H-M_alt    "P 1"
_space_group_IT_number       1

loop_
  _space_group_symop_operation_xyz
  'x, y, z'

loop_
  _atom_site_type_symbol
  _atom_site_label
  _atom_site_symmetry_multiplicity
  _atom_site_fract_x
  _atom_site_fract_y
  _atom_site_fract_z
  _atom_site_occupancy
  N   N1        1.0  0.6476026018516235  0.4089056537169855  0.561697844798833  1.0000
  C   C1        1.0  0.5887630655666802  0.4188108419829475  0.5760793880194361  1.0000
  C   C2        1.0  0.5154292849502998  0.4311639490845647  0.5940686734287994  1.0000
  C   C3        1.0  0.47326245292226427  0.39914784799407066  0.4994021011876133  1.0000
  C   C4        1.0  0.3973550481395651  0.40958785397514386  0.5047274759408926  1.0000
  C   C5        1.0  0.3576089114069889  0.3848571554842073  0.6118080346289243  1.0000
  C   C6        1.0  0.2814890060602026  0.3887717607030321  0.598847426638975  1.0000
  C   C7        1.0  0.2409037426743033  0.4464539951123576  0.6926041009417865  1.0000
  C   C8        1.0  0.1692407749320073  0.45009014343346676  0.6820590802447262  1.0000
  C   C9        1.0  0.1371683643211233  0.395648067622405  0.5780440214137745  1.0000
  C   C10       1.0  0.0633761566736231  0.39934543613540807  0.5673437001823374  1.0000
  N   N2        1.0  0.0040522267540575  0.40231792643179864  0.5587413513173671  1.0000
  C   C11       1.0  0.177028839315125  0.3372587586419802  0.48467077575460404  1.0000
  C   C12       1.0  0.2487082754846449  0.3335683376364893  0.49496402983542676  1.0000
  C   C13       1.0  0.3857353299108646  0.3444166796514707  0.7429153177201329  1.0000
  C   C14       1.0  0.4443847336507804  0.38755010946397017  0.7901470195040623  1.0000
  C   C15       1.0  0.4885803571509943  0.48540229777208777  0.7157524819031618  1.0000
  H   H1        1.0  0.49537762043677913  0.37001258934961534  0.4091017328620914  1.0000
  H   H2        1.0  0.3726624673309114  0.43206764096096206  0.4115618009159365  1.0000
  H   H3        1.0  0.264756185349185  0.48976240459517895  0.7734420707108338  1.0000
  H   H4        1.0  0.138878426263935  0.49542102160338564  0.7549689321620627  1.0000
  H   H5        1.0  0.15270443619499863  0.2941460803455389  0.40416724170193463  1.0000
  H   H6        1.0  0.278405391358068  0.28599402907704996  0.42275111778627106  1.0000
  H   H7        1.0  0.3547758526126703  0.2802062955816278  0.8071802350665354  1.0000
  H   H8        1.0  0.4595306606640845  0.35349775352992263  0.8880919278672172  1.0000
  H   H9        1.0  0.4584555226225198  0.5761187347434438  0.6904760758924238  1.0000
  H   H10       1.0  0.5318530843934713  0.5110013553893362  0.7788315613714647  1.0000
  C   C16       1.0  0.8259075030380115  0.024212869023346295  0.5603376643323561  1.0000
  C   C17       1.0  0.8141813815124604  0.034093564587653225  0.4255089475325802  1.0000
  C   C18       1.0  0.8081693984890611  0.9219668014008799  0.3570307755888982  1.0000
  C   C19       1.0  0.8140169793981245  0.7988367510343399  0.42520252449498797  1.0000
  C   C20       1.0  0.8257539261690111  0.7870006434281286  0.560112742551176  1.0000
  C   C21       1.0  0.8316299908999929  0.9002069961633322  0.6268497233916022  1.0000
  C   C22       1.0  0.7957654268757711  0.9333930378579317  0.21439826665332373  1.0000
  C   C23       1.0  0.8306602039264538  0.026837245017104383  0.13269077156247455  1.0000
  C   C24       1.0  0.818992908784618  0.03745910442996414  0.9984640293190448  1.0000
  C   C25       1.0  0.7726252397552534  0.9539587995903924  0.9430977228429098  1.0000
  C   C26       1.0  0.7368903394827572  0.8623463864812105  0.024744026189727597  1.0000
  C   C27       1.0  0.7485826914279035  0.8514680345661492  0.15893322492455053  1.0000
  N   N3        1.0  0.7587451092747679  0.9644194952133925  0.8056509871095021  1.0000
  C   C28       1.0  0.8089822404187389  0.000401255768750719  0.7070160110655386  1.0000
  O   O1        1.0  0.8720748037750586  0.001776983864661963  0.7343512906111451  1.0000
  C   C29       1.0  0.7870637421732266  0.027215993000708316  0.5686571083566285  1.0000
  H   H11       1.0  0.830439220913904  0.34788812165014615  0.612192684633319  1.0000
  H   H12       1.0  0.8087484704183451  0.12922519330531168  0.37374406860713094  1.0000
  H   H13       1.0  0.8103260384423882  0.7120917877277755  0.3726043815456903  1.0000
  H   H14       1.0  0.8406769089604217  0.8918709011758374  0.7308454655933654  1.0000
  H   H15       1.0  0.8483186685656465  0.5573696453414092  0.814614486864395  1.0000
  H   H16       1.0  0.8673803842222612  0.09121770466671841  0.17247876249216243  1.0000
  H   H17       1.0  0.8453888686198874  0.11241094495838078  0.9386643153242513  1.0000
  H   H18       1.0  0.7001042999020117  0.7986709620852268  0.9840895405132022  1.0000
  H   H19       1.0  0.7199765247864766  0.7801736132067831  0.2195842229922087  1.0000
  H   H20       1.0  0.7103070126150675  0.9364378026193583  0.7749791153597241  1.0000
  H   H21       1.0  0.7374160537965271  0.08157803232862526  0.5646152278806333  1.0000
  H   H22       1.0  0.7807068965266913  0.9337117308589087  0.5234855005915318  1.0000
  H   H23       1.0  0.8262276576502126  0.08656861979480057  0.5129366646382683  1.0000
  C   C30       1.0  0.8258952139846085  0.40546756857993316  0.17885162501448515  1.0000
  C   C31       1.0  0.8274657334295384  0.5421520277134706  0.16748451662378372  1.0000
  C   C32       1.0  0.8282079985322659  0.6115938055567505  0.044564009586051556  1.0000
  C   C33       1.0  0.8273339956567562  0.5425143590946295  0.9321740239762852  1.0000
  C   C34       1.0  0.825766193046512  0.40574593458538577  0.9415988285639734  1.0000
  C   C35       1.0  0.8250594631042275  0.33806344053446535  0.06532516497016627  1.0000
  C   C36       1.0  0.8298702396312798  0.7561891756179022  0.033512535474158556  1.0000
  C   C37       1.0  0.8720714593919208  0.823248210570618  0.11570977899170187  1.0000
  C   C38       1.0  0.8736413212695044  0.9593199761726137  0.10517885524218684  1.0000
  C   C39       1.0  0.8334772629071481  0.031052945115795705  0.011341375722095925  1.0000
  C   C40       1.0  0.7904568874955009  0.9643694643649094  0.9309338989101752  1.0000
  C   C41       1.0  0.7889152575521512  0.8283250885304883  0.9412035933662359  1.0000
  N   N4        1.0  0.8331864018886275  0.17111476908141032  6.68803130752238e-05  1.0000
  C   C42       1.0  0.8920984827788128  0.24901978304585892  0.022786397450093032  1.0000
  O   O2        1.0  0.951409060735557  0.19850727125034684  0.030825252995979158  1.0000
  C   C43       1.0  0.8840016166919011  0.39299533106469875  0.027413466493513283  1.0000
  H   H24       1.0  0.8253126736605287  0.3528906187879757  0.5106994962941056  1.0000
  H   H25       1.0  0.8271544338057926  0.5949789786409345  0.2544222910172782  1.0000
  H   H26       1.0  0.8288144314609595  0.5955045659659199  0.8371744157337391  1.0000
  H   H27       1.0  0.8238504392406341  0.2326354802738011  0.07337796457827617  1.0000
  H   H28       1.0  0.8232245995835377  0.14757959250122066  0.752091979201245  1.0000
  H   H29       1.0  0.9042727440784177  0.770422133824535  0.18765072429454333  1.0000
  H   H30       1.0  0.9053693450053345  0.008076864375379245  0.1719325835330887  1.0000
  H   H31       1.0  0.7582750100921837  0.018070255201952712  0.8595618237343339  1.0000
  H   H32       1.0  0.7549339555636533  0.7795630607908961  0.8781528098610076  1.0000
  H   H33       1.0  0.7885920353071612  0.21939748649548863  0.9654759466492213  1.0000
  H   H34       1.0  0.8356345314780982  0.41560553198585426  0.07922599314285872  1.0000
  H   H35       1.0  0.8821430219970653  0.4397005121712283  0.9266962477975786  1.0000
  H   H36       1.0  0.9278732638923209  0.43295520715140867  0.07969225975644201  1.0000
  Zn  Zn1       1.0  0.7504662645580643  0.40700110902452846  0.5608521778987221  1.0000
  Zn  Zn2       1.0  0.901188555892191  0.40421186650601837  0.5595977026560381  1.0000
  C   C44       1.0  0.8257900861914961  0.4005192410564238  0.7974247877970277  1.0000
  C   C45       1.0  0.8258663797899423  0.4106953428104545  0.3230252060437342  1.0000
  C   C46       1.0  0.8257802715967407  0.6428156665202838  0.5549800647594096  1.0000
  C   C47       1.0  0.8258761432562204  0.16839735789853116  0.5654699992089822  1.0000
  O   O3        1.0  0.8830550279772701  0.4113856624126859  0.3709351117328905  1.0000
  O   O4        1.0  0.8829961699108829  0.3977109709854607  0.7485623908635322  1.0000
  O   O5        1.0  0.8829874732123022  0.5933684135659654  0.552786567693538  1.0000
  O   O6        1.0  0.8830636732591435  0.21572823003937813  0.5667108379523518  1.0000
  O   O7        1.0  0.7685910957569918  0.5954847464444117  0.5537390430236679  1.0000
  O   O8        1.0  0.76859979214993  0.3998288642652137  0.7495147964872915  1.0000
  O   O9        1.0  0.7686586505352971  0.4135035098622799  0.3718859559498011  1.0000
  O   O10       1.0  0.7686672957997578  0.2178460682350185  0.5676617795410546  1.0000
