data_image0
_chemical_formula_structural       NC10NC3NCH9C12SCH12C12NCOCH13Zn2C4O8
_chemical_formula_sum              "N4 C45 H34 S1 O9 Zn2"
_cell_length_a       19.437513618241372
_cell_length_b       10.299776766347529
_cell_length_c       10.299158637457994
_cell_angle_alpha    85.5824420436923
_cell_angle_beta     90.32911859646087
_cell_angle_gamma    89.50378728869872

_space_group_name_H-M_alt    "P 1"
_space_group_IT_number       1

loop_
  _space_group_symop_operation_xyz
  'x, y, z'

loop_
  _atom_site_type_symbol
  _atom_site_label
  _atom_site_symmetry_multiplicity
  _atom_site_fract_x
  _atom_site_fract_y
  _atom_site_fract_z
  _atom_site_occupancy
  N   N1        1.0  0.6478457710742778  0.4099588801338139  0.5757650637909932  1.0000
  C   C1        1.0  0.5889099423627804  0.4269677727025851  0.5727908323569695  1.0000
  C   C2        1.0  0.5154663524502017  0.4482188338591806  0.5690990461127889  1.0000
  C   C3        1.0  0.4737225477848351  0.3470269571063731  0.5574288904030089  1.0000
  C   C4        1.0  0.3978318119930335  0.3570894283405506  0.5502085451321574  1.0000
  C   C5        1.0  0.3582354691338472  0.43795614410300043  0.6159602689776349  1.0000
  C   C6        1.0  0.28205577326655634  0.42934552629263956  0.6075151719685798  1.0000
  C   C7        1.0  0.2489398597536284  0.30800409971549736  0.6121456904433309  1.0000
  C   C8        1.0  0.177207159044066  0.30163033304435194  0.6049768874847479  1.0000
  C   C9        1.0  0.1376197800022285  0.4161254212500496  0.5935397509099616  1.0000
  C   C10       1.0  0.0637726841856656  0.4094134306674808  0.5862028190355708  1.0000
  N   N2        1.0  0.0044047170214278  0.4040175804293391  0.5803043842812139  1.0000
  C   C11       1.0  0.17001905706074863  0.5371564979953691  0.5896544824977454  1.0000
  C   C12       1.0  0.24173611210294452  0.5437842699088131  0.5968853344748737  1.0000
  C   C13       1.0  0.3868927522752438  0.5302654909853919  0.7058908666435011  1.0000
  N   N3        1.0  0.443869870667399  0.5934711703599285  0.6854932039433663  1.0000
  C   C14       1.0  0.48772571452740826  0.5841779606072832  0.5723836136469009  1.0000
  H   H1        1.0  0.4961236786954823  0.2519688237146753  0.545297462834945  1.0000
  H   H2        1.0  0.3731360860091801  0.2875617675323485  0.4918824784942719  1.0000
  H   H3        1.0  0.2784036915439079  0.21809686845188114  0.6231570747152548  1.0000
  H   H4        1.0  0.1526286585025885  0.20740673443904178  0.6088540713397104  1.0000
  H   H5        1.0  0.1398697735533925  0.6264094878045197  0.5809551976649652  1.0000
  H   H6        1.0  0.265833024707458  0.6384206569124149  0.5929927345998689  1.0000
  H   H7        1.0  0.3568760679761487  0.550674650056366  0.7902604647505236  1.0000
  H   H8        1.0  0.5304660425645559  0.6544908706101653  0.5781545466319074  1.0000
  H   H9        1.0  0.45806484848743906  0.6122605670236041  0.4817401953254208  1.0000
  C   C15       1.0  0.8261934126979158  0.025621929671762356  0.5780340159093493  1.0000
  C   C16       1.0  0.8303045955803002  0.014040267211039348  0.7146009393015311  1.0000
  C   C17       1.0  0.832321523586536  0.8910342313371225  0.7838050017014573  1.0000
  C   C18       1.0  0.8301730368431122  0.7787546884023482  0.7146144548316329  1.0000
  C   C19       1.0  0.8260636915815626  0.7883443724652285  0.578046805448343  1.0000
  C   C20       1.0  0.8240964955467152  0.9122167366598039  0.5105210486028451  1.0000
  C   C21       1.0  0.8366631091934489  0.8798461717144086  0.9282773011540257  1.0000
  C   C22       1.0  0.7972747387998973  0.7870684378386199  0.0018189106994311866  1.0000
  C   C23       1.0  0.8013813423779971  0.7767732747958207  0.13778118368939662  1.0000
  C   C24       1.0  0.8447044722455349  0.8589807840378165  0.20200634081294844  1.0000
  C   C25       1.0  0.8842567948886129  0.951182488101657  0.1298398903104806  1.0000
  C   C26       1.0  0.880251077400795  0.9618258551312937  0.9938684866469167  1.0000
  S   S1        1.0  0.8500496788037001  0.84530887155796  0.3764656088043612  1.0000
  C   C27       1.0  0.7809108699873936  0.9625297094796985  0.395114214937773  1.0000
  H   H10       1.0  0.8246539325988674  0.3574880997431831  0.5259961634050054  1.0000
  H   H11       1.0  0.8309988664312571  0.10087863545638376  0.7675683768719848  1.0000
  H   H12       1.0  0.8326612452348079  0.6837182867221071  0.7674085936839417  1.0000
  H   H13       1.0  0.8209253631576147  0.920383000675508  0.4051654799986595  1.0000
  H   H14       1.0  0.8244634949928101  0.46454528176482285  0.5260128457490063  1.0000
  H   H15       1.0  0.7626488177606741  0.7236645558441956  0.9542637214497214  1.0000
  H   H16       1.0  0.7706118860210182  0.7052435552156368  0.19311123549106735  1.0000
  H   H17       1.0  0.9181502074977241  0.014655017551479244  0.17897469652549025  1.0000
  H   H18       1.0  0.9118886372980523  0.03297266212862393  0.9399625365276576  1.0000
  H   H19       1.0  0.7946920752797725  0.05861236577513895  0.34641175923505585  1.0000
  H   H20       1.0  0.7729208562524345  0.9733797466350214  0.5002923025258627  1.0000
  H   H21       1.0  0.732505427623168  0.9277887809715573  0.3523756636927097  1.0000
  C   C28       1.0  0.8261930674007548  0.4068441129892457  0.19666812603917294  1.0000
  C   C29       1.0  0.8277683528255642  0.5435197680546977  0.18537722109033816  1.0000
  C   C30       1.0  0.8285130221623439  0.6129569722541794  0.062494258645460876  1.0000
  C   C31       1.0  0.8276365859223579  0.5438818298763295  0.9500640717831121  1.0000
  C   C32       1.0  0.8260640155359  0.40712222151373645  0.9594127035593245  1.0000
  C   C33       1.0  0.8253549474114277  0.3394442155460258  0.08310279846873558  1.0000
  C   C34       1.0  0.8301803053360649  0.7575430301862758  0.051523415757261715  1.0000
  C   C35       1.0  0.8723965956064923  0.8246728086090067  0.13462953645001652  1.0000
  C   C36       1.0  0.8739712040616503  0.9607358211708414  0.12417460880949038  1.0000
  C   C37       1.0  0.8337970506202855  0.03238990839916234  0.029514936929674107  1.0000
  C   C38       1.0  0.7907613647292027  0.9656341680495941  0.9481814706902765  1.0000
  C   C39       1.0  0.7892149977426901  0.8295985940706638  0.9583757715435968  1.0000
  N   N4        1.0  0.8335104893899823  0.17243926805631338  0.018278557644666016  1.0000
  C   C40       1.0  0.8924431161674586  0.25044437731288793  0.042261888683837956  1.0000
  O   O1        1.0  0.9517703382034991  0.20004362769716177  0.05153238362665813  1.0000
  C   C41       1.0  0.8843482736148958  0.394392984784921  0.04676411132298752  1.0000
  H   H22       1.0  0.8256087004283327  0.3542705888522357  0.5284871387750734  1.0000
  H   H23       1.0  0.8274586129944241  0.5963416525886469  0.2723251311461301  1.0000
  H   H24       1.0  0.8291191372617552  0.5968702026500612  0.8551123397438003  1.0000
  H   H25       1.0  0.8241422481584052  0.23402305033824522  0.09109687009421408  1.0000
  H   H26       1.0  0.8235135507408201  0.1489732779211248  0.7697708578705318  1.0000
  H   H27       1.0  0.9046061207878164  0.7719095754575789  0.2072311491176122  1.0000
  H   H28       1.0  0.9057105061987699  0.009546037709748934  0.19161113142214137  1.0000
  H   H29       1.0  0.7585712802064704  0.019272075902442065  0.8761494126324103  1.0000
  H   H30       1.0  0.755221724726394  0.7807791560140371  0.8945947946033721  1.0000
  H   H31       1.0  0.788903931360802  0.2206370757044822  0.9827648344524342  1.0000
  H   H32       1.0  0.8359670330315795  0.4169136286908479  0.09756638177241928  1.0000
  H   H33       1.0  0.8824905713658223  0.4410908179098101  0.9460225477084556  1.0000
  H   H34       1.0  0.928234655454638  0.4344289404051853  0.09997836057816278  1.0000
  Zn  Zn1       1.0  0.7507409856091535  0.40824086292468764  0.5770825225918175  1.0000
  Zn  Zn2       1.0  0.9015095087059485  0.4057249320551317  0.5789975952682529  1.0000
  C   C42       1.0  0.8260877522325872  0.40189601673972697  0.8152375146868223  1.0000
  C   C43       1.0  0.8261643881697948  0.41207138942066823  0.3408427515807835  1.0000
  C   C44       1.0  0.826085527562827  0.644171773728712  0.5728691073128704  1.0000
  C   C45       1.0  0.8261665616464962  0.16979407302389715  0.5832112275143781  1.0000
  O   O2        1.0  0.8833706329001391  0.412865262788368  0.38995583296940284  1.0000
  O   O3        1.0  0.8833113282164644  0.39919163020484216  0.767577555282126  1.0000
  O   O4        1.0  0.8833087602417388  0.5948323813318408  0.5718633417563539  1.0000
  O   O5        1.0  0.8833731494426756  0.21722452177454077  0.5856699484663201  1.0000
  O   O6        1.0  0.76887729342253  0.5967412740652533  0.5704101687333982  1.0000
  O   O7        1.0  0.7688798611404175  0.4011020832060155  0.766124313039177  1.0000
  O   O8        1.0  0.7689391661417339  0.4147756699638665  0.38850102931184094  1.0000
  O   O9        1.0  0.7689416826665627  0.2191349196968433  0.5842152421772615  1.0000
