data_image0
_chemical_formula_structural       NC8NC6H8C13OH12C13NH9Zn2C4O8
_chemical_formula_sum              "N3 C44 H29 O9 Zn2"
_cell_length_a       17.457602349358154
_cell_length_b       10.299150109392551
_cell_length_c       10.298528502251457
_cell_angle_alpha    85.52101086159662
_cell_angle_beta     92.8736263554175
_cell_angle_gamma    91.67070309183428

_space_group_name_H-M_alt    "P 1"
_space_group_IT_number       1

loop_
  _space_group_symop_operation_xyz
  'x, y, z'

loop_
  _atom_site_type_symbol
  _atom_site_label
  _atom_site_symmetry_multiplicity
  _atom_site_fract_x
  _atom_site_fract_y
  _atom_site_fract_z
  _atom_site_occupancy
  N   N1        1.0  0.7221886753522488  0.45338910692661294  0.6257845239359976  1.0000
  C   C1        1.0  0.6611197527261731  0.4074643968961149  0.6151848702914633  1.0000
  C   C2        1.0  0.5851474285906997  0.3503397691808765  0.6020084421421426  1.0000
  C   C3        1.0  0.526609049636951  0.3904791971163948  0.6769002411781171  1.0000
  C   C4        1.0  0.45207438909777625  0.335472766949678  0.6643375253898569  1.0000
  C   C5        1.0  0.3899445624367195  0.3778540111737321  0.7436508294042186  1.0000
  C   C6        1.0  0.3153959867831527  0.39634232355576726  0.6878733781658086  1.0000
  C   C7        1.0  0.2568576367822757  0.4362977776326751  0.7628732139901089  1.0000
  C   C8        1.0  0.1808708540959612  0.45539272561516353  0.7048797963312454  1.0000
  N   N2        1.0  0.1197903985287894  0.47073868362166027  0.658253242016291  1.0000
  C   C9        1.0  0.2723756391330637  0.4580079065728999  0.894158989918941  1.0000
  C   C10       1.0  0.3461394259716887  0.43990847684324885  0.9503239402407031  1.0000
  C   C11       1.0  0.4046661238642085  0.40013293567940833  0.8757818145587521  1.0000
  C   C12       1.0  0.4373669226415743  0.23964992453201184  0.575450168915957  1.0000
  C   C13       1.0  0.4958935192053943  0.19978906107381755  0.500958317486472  1.0000
  C   C14       1.0  0.5696433770999602  0.2549076900410021  0.5140710090263791  1.0000
  H   H1        1.0  0.5389369328104721  0.4656562013519847  0.7435107753208048  1.0000
  H   H2        1.0  0.30305673284471  0.3814052389534157  0.5858418575400322  1.0000
  H   H3        1.0  0.2275071343202576  0.4888730140393296  0.9529904596072467  1.0000
  H   H4        1.0  0.3579646841850725  0.45640345045050523  0.051981563911495776  1.0000
  H   H5        1.0  0.4611532662534992  0.3851246799352426  0.9218996887452733  1.0000
  H   H6        1.0  0.3808911672652851  0.19431493393107324  0.5648141705603809  1.0000
  H   H7        1.0  0.484079268303204  0.12572899412794158  0.43314888999967494  1.0000
  H   H8        1.0  0.6145120761499193  0.22317265556280375  0.45575105734618004  1.0000
  C   C15       1.0  0.9210655080398005  0.08066750062508166  0.6421692310077747  1.0000
  C   C16       1.0  0.9196484184731225  0.06875448430965037  0.778880950331647  1.0000
  C   C17       1.0  0.9188631767979613  0.9455769102367692  0.8479275165619373  1.0000
  C   C18       1.0  0.919500511499542  0.8334928104059586  0.7785054326638947  1.0000
  C   C19       1.0  0.9209208997286348  0.8434505347913682  0.6418803922384315  1.0000
  C   C20       1.0  0.9216972074173364  0.9674977503622627  0.5745108898768705  1.0000
  C   C21       1.0  0.9173573700894044  0.933955779309434  0.9924623352046926  1.0000
  C   C22       1.0  0.8701801900585618  0.838993570700581  0.05663950009728336  1.0000
  C   C23       1.0  0.8687378098856235  0.828138398305862  0.19264454435681266  1.0000
  C   C24       1.0  0.9149497330906337  0.9111067706585598  0.2669721846163434  1.0000
  C   C25       1.0  0.9613928992519213  0.0069903640500954545  0.20337772921167296  1.0000
  C   C26       1.0  0.9628530882130392  0.018022110670759206  0.06737385049428646  1.0000
  C   C27       1.0  0.9117866542246146  0.901726107102278  0.4128179989915628  1.0000
  O   O1        1.0  0.8544438366808381  0.9823855097220245  0.44838087602072685  1.0000
  H   H9        1.0  0.9232418982105026  0.3104249637815961  0.38407875158407023  1.0000
  H   H10       1.0  0.9180885377956717  0.15544025654577842  0.8317686208596122  1.0000
  H   H11       1.0  0.9199367241582548  0.7383697688041461  0.8313810229409622  1.0000
  H   H12       1.0  0.9227906244604951  0.9758945549790957  0.46912773077291225  1.0000
  H   H13       1.0  0.9214155930334245  0.5198029035868741  0.589325393169073  1.0000
  H   H14       1.0  0.8334916383913062  0.774403388323396  0.0015284024386090778  1.0000
  H   H15       1.0  0.8314159779357391  0.7551614855144959  0.23997850616206073  1.0000
  H   H16       1.0  0.9966682576644043  0.07307157371756778  0.25911972042479436  1.0000
  H   H17       1.0  0.00020060226532425673  0.09144527713560935  0.020848727722429405  1.0000
  H   H18       1.0  0.96821830868076  0.9320027730001632  0.45760120008460403  1.0000
  H   H19       1.0  0.8993178102283275  0.7991466615269192  0.4496169765394544  1.0000
  H   H20       1.0  0.8547252301282359  0.9726846045191992  0.5450423389931385  1.0000
  C   C28       1.0  0.9210040852763155  0.46218600045156455  0.2606087679939255  1.0000
  C   C29       1.0  0.8412415261440898  0.47856905539261496  0.25159793528638463  1.0000
  C   C30       1.0  0.8008331354205602  0.4867305848603085  0.12988628248417244  1.0000
  C   C31       1.0  0.84121867447179  0.4783031777115092  0.01633646177606418  1.0000
  C   C32       1.0  0.9209823232459611  0.46193205091036416  0.023440802207747025  1.0000
  C   C33       1.0  0.960364277534075  0.4539755331489559  0.1460020348349651  1.0000
  C   C34       1.0  0.7165080685295554  0.5040450457075738  0.12136769383149337  1.0000
  C   C35       1.0  0.6826181741928777  0.5905043096826048  0.1994843063564058  1.0000
  C   C36       1.0  0.6032430841470757  0.6067553702371327  0.19134630525467622  1.0000
  C   C37       1.0  0.5567016985277488  0.5368605506500175  0.10522126547461075  1.0000
  C   C38       1.0  0.589834342692849  0.4506045969145849  0.02714673625414754  1.0000
  C   C39       1.0  0.6692012612265765  0.43425880763540925  0.03504749410208108  1.0000
  C   C40       1.0  0.47498495078481034  0.5536417327658467  0.096963829922041  1.0000
  N   N3        1.0  0.4092901958571276  0.5671327946009745  0.09032544352887673  1.0000
  H   H21       1.0  0.07166064185401999  0.4304172729942217  0.48501815810596915  1.0000
  H   H22       1.0  0.8102564866401393  0.48322531251686773  0.33958109419995974  1.0000
  H   H23       1.0  0.8105215864132674  0.48631165596052184  0.9221223346998104  1.0000
  H   H24       1.0  0.021838822764847388  0.4413535091544871  0.1522119769273398  1.0000
  H   H25       1.0  0.07178032999572204  0.43181240931898146  0.82948320622776  1.0000
  H   H26       1.0  0.717602759056559  0.6468035295861392  0.2656243255707429  1.0000
  H   H27       1.0  0.5782192721449319  0.6740592106981129  0.25198502736716777  1.0000
  H   H28       1.0  0.5543192213766861  0.39573250393488424  0.9603911372318708  1.0000
  H   H29       1.0  0.6934720187825766  0.36579182927840725  0.9748944670876241  1.0000
  Zn  Zn1       1.0  0.8369279444696845  0.4583923345383618  0.6351617953249795  1.0000
  Zn  Zn2       1.0  0.005051116876816364  0.4657248038793176  0.6488866085009586  1.0000
  C   C41       1.0  0.9209857037406316  0.4568059507419262  0.8792510574460632  1.0000
  C   C42       1.0  0.9209951931913739  0.46731290644190526  0.40479762311602685  1.0000
  C   C43       1.0  0.9209444318647388  0.6992698938167827  0.6367588369922863  1.0000
  C   C44       1.0  0.9210364079924281  0.22484740042636586  0.6472899087245889  1.0000
  O   O2        1.0  0.9847940777478604  0.47181051067681623  0.45839721729501903  1.0000
  O   O3        1.0  0.9847884171321689  0.45787254140601186  0.8360679053758995  1.0000
  O   O4        1.0  0.9847542294522055  0.6536652038532502  0.6402536509613526  1.0000
  O   O5        1.0  0.9848282080597908  0.2760178550508132  0.6542113696359999  1.0000
  O   O6        1.0  0.8571507959145224  0.6480992808660699  0.629837029499501  1.0000
  O   O7        1.0  0.8571849832971365  0.452308178858718  0.8256512140688248  1.0000
  O   O8        1.0  0.8571906440169866  0.4662461033923002  0.4479789644156549  1.0000
  O   O9        1.0  0.8572247743247622  0.2704534384442654  0.643793214139764  1.0000
