data_image0
_chemical_formula_structural       NC12NC2H8C13OH12C12IH9Zn2C4O8
_chemical_formula_sum              "N2 C43 H29 O9 I1 Zn2"
_cell_length_a       19.240039667572717
_cell_length_b       10.299150109392551
_cell_length_c       10.29977335064465
_cell_angle_alpha    85.52407015278276
_cell_angle_beta     90.00916568916979
_cell_angle_gamma    89.97992514300192

_space_group_name_H-M_alt    "P 1"
_space_group_IT_number       1

loop_
  _space_group_symop_operation_xyz
  'x, y, z'

loop_
  _atom_site_type_symbol
  _atom_site_label
  _atom_site_symmetry_multiplicity
  _atom_site_fract_x
  _atom_site_fract_y
  _atom_site_fract_z
  _atom_site_occupancy
  N   N1        1.0  0.6540877367838601  0.4217993210172648  0.5669886542194738  1.0000
  C   C1        1.0  0.5939393679438031  0.4217994050287819  0.5669885722552417  1.0000
  C   C2        1.0  0.5191213307688711  0.42179952236332396  0.5669884349124403  1.0000
  C   C3        1.0  0.48266857240983346  0.35729932221079386  0.6704213653249056  1.0000
  C   C4        1.0  0.4099978525266656  0.35718840718358646  0.6705079435084691  1.0000
  C   C5        1.0  0.37278909579466335  0.42179961500139806  0.5669882072006842  1.0000
  C   C6        1.0  0.409956017431469  0.48641100976451024  0.4634686653730755  1.0000
  C   C7        1.0  0.4826267341667002  0.4862998591837655  0.4635553661334664  1.0000
  C   C8        1.0  0.2955840053616157  0.42179953636140977  0.5669881118105367  1.0000
  C   C9        1.0  0.2584210317072592  0.3085176465758872  0.6088953308095109  1.0000
  C   C10       1.0  0.18575031544287207  0.30862458164137285  0.608803970921149  1.0000
  C   C11       1.0  0.14925171846787066  0.42179940716066966  0.5669881727624377  1.0000
  C   C12       1.0  0.0744336813555652  0.42179929333708066  0.5669884214599192  1.0000
  N   N2        1.0  0.0142853645289852  0.42179925245021566  0.5669886298924556  1.0000
  C   C13       1.0  0.18570063233072467  0.5349743085288781  0.5251723216885396  1.0000
  C   C14       1.0  0.25837130062062874  0.5350814237765493  0.5250807991475643  1.0000
  H   H1        1.0  0.5103997206288902  0.3073616690810814  0.7511787230552776  1.0000
  H   H2        1.0  0.38292077389801016  0.30804858120946577  0.7523805512997597  1.0000
  H   H3        1.0  0.3828465652625635  0.5355508628078784  0.3815960067246347  1.0000
  H   H4        1.0  0.5103253574531691  0.5362374119634561  0.38279828423085616  1.0000
  H   H5        1.0  0.2855337025218312  0.2193461527636058  0.6400916543298134  1.0000
  H   H6        1.0  0.15805478893910557  0.22035204182690027  0.6410329718848959  1.0000
  H   H7        1.0  0.1579663353925511  0.6232468238003392  0.4929433352831294  1.0000
  H   H8        1.0  0.2854451086045768  0.6242529967846806  0.4938844308302279  1.0000
  C   C15       1.0  0.8342554069241546  0.04039961161441341  0.5671327507419905  1.0000
  C   C16       1.0  0.8329870585991558  0.0285557483419141  0.7039430849664061  1.0000
  C   C17       1.0  0.8322834813389929  0.9054161347794293  0.7730451346962353  1.0000
  C   C18       1.0  0.8328530248715765  0.7933005090118109  0.7035796910519343  1.0000
  C   C19       1.0  0.8341243712841425  0.803188941036311  0.5668557555486602  1.0000
  C   C20       1.0  0.8348200442158785  0.9271986756645069  0.49943128948478455  1.0000
  C   C21       1.0  0.8309356448737797  0.8938684468851681  0.9176848340313544  1.0000
  C   C22       1.0  0.7882042918162994  0.8009684812496596  0.9857060556578618  1.0000
  C   C23       1.0  0.786912952621557  0.7901835277864814  0.12181186818212031  1.0000
  C   C24       1.0  0.8287854823323755  0.8711391881343403  0.1923569496741262  1.0000
  C   C25       1.0  0.8708519457573657  0.9649926020601218  0.12497829790633996  1.0000
  C   C26       1.0  0.8721594183602369  0.9759533526365656  0.9888721966668899  1.0000
  C   C27       1.0  0.8259364433599822  0.861904361032766  0.3384427993449919  1.0000
  O   O1        1.0  0.7739926438531685  0.9450681044772171  0.37868334864390796  1.0000
  H   H9        1.0  0.8361979306969126  0.2700482945780074  0.3088968338720308  1.0000
  H   H10       1.0  0.8315799008173529  0.11531242214055282  0.7569515095801596  1.0000
  H   H11       1.0  0.8332541597997595  0.698161258869767  0.7564130532077  1.0000
  H   H12       1.0  0.8357987050718817  0.9355421277384828  0.3939720269271625  1.0000
  H   H13       1.0  0.8345665956660484  0.47951691080725284  0.5142669347892193  1.0000
  H   H14       1.0  0.7549613093921396  0.7379764389068416  0.9335975180680915  1.0000
  H   H15       1.0  0.7531078235454398  0.7188378700886047  0.172187290057623  1.0000
  H   H16       1.0  0.9028147641086712  0.029537377146831023  0.1778330393114539  1.0000
  H   H17       1.0  0.9059879044897122  0.04774418649812939  0.9393034157213569  1.0000
  H   H18       1.0  0.8770638655264213  0.8897207461171159  0.37861268060025965  1.0000
  H   H19       1.0  0.8146448604268982  0.7598710234527899  0.37625527405874937  1.0000
  H   H20       1.0  0.7742584631082697  0.9353600886931308  0.4753097503658855  1.0000
  C   C28       1.0  0.834156735440705  0.42190038621007675  0.1856250075605026  1.0000
  C   C29       1.0  0.8971482627254839  0.49090946633631694  0.17926272106986407  1.0000
  C   C30       1.0  0.9291000002970233  0.525769071173126  0.05890890369528434  1.0000
  C   C31       1.0  0.897215154830375  0.49069529249892363  0.9439931854706822  1.0000
  C   C32       1.0  0.8342230451307192  0.42168821748110563  0.9483635130313997  1.0000
  C   C33       1.0  0.8030468346250565  0.3876761184212387  0.06964746133868638  1.0000
  C   C34       1.0  0.995739508594439  0.5987725997568163  0.05323215403051629  1.0000
  C   C35       1.0  0.0066550244256795565  0.7018000336712784  0.1330053579961057  1.0000
  C   C36       1.0  0.06941252351177751  0.7703978109720793  0.12746060851319085  1.0000
  C   C37       1.0  0.12195199910225263  0.7370354970311317  0.04248336729676838  1.0000
  C   C38       1.0  0.11170676106546118  0.6348943321681009  0.9628525819521685  1.0000
  C   C39       1.0  0.04901980826558083  0.5660705646626738  0.9679914718496061  1.0000
  I   I1        1.0  0.21656760016693832  0.8406826737271089  0.0344274681618868  1.0000
  H   H21       1.0  0.8101338909466955  0.3956698032979349  0.5154977930337636  1.0000
  H   H22       1.0  0.9219972835997081  0.5161584911593344  0.26823041404497494  1.0000
  H   H23       1.0  0.9211463023970365  0.5188852803510786  0.8508701427902468  1.0000
  H   H24       1.0  0.7544513487403879  0.3344398909069446  0.07378731585270693  1.0000
  H   H25       1.0  0.8102309985785886  0.3953576365030871  0.6225780667319016  1.0000
  H   H26       1.0  0.9663485526373043  0.7303802633088023  0.1983856858030164  1.0000
  H   H27       1.0  0.0770908779320365  0.8496811698586548  0.18901767932305935  1.0000
  H   H28       1.0  0.15235419593187838  0.6085505118048604  0.8971803012059252  1.0000
  H   H29       1.0  0.042549351578957895  0.486246275210529  0.906595507254186  1.0000
  Zn  Zn1       1.0  0.7580330018722444  0.42179583166536005  0.5669961368906067  1.0000
  Zn  Zn2       1.0  0.9103401209530203  0.4217921445190247  0.5669917499775099  1.0000
  C   C40       1.0  0.8342098459875371  0.4165542234407593  0.8041914521637936  1.0000
  C   C41       1.0  0.834164939756299  0.42703539141967783  0.32979656152783976  1.0000
  C   C42       1.0  0.8341451118921929  0.6590069992210104  0.561732919194041  1.0000
  C   C43       1.0  0.8342296221539474  0.18458105519297296  0.5722551643044689  1.0000
  O   O2        1.0  0.8919674521088639  0.4287516806255707  0.3781801893097907  1.0000
  O   O3        1.0  0.8920049130062543  0.414834156078568  0.7558041213257889  1.0000
  O   O4        1.0  0.8919518603545976  0.6106178383981904  0.5600171400503702  1.0000
  O   O5        1.0  0.8920204527783568  0.2329680076252656  0.5739670732085833  1.0000
  O   O6        1.0  0.7763526180719621  0.6106199685617937  0.5600208136541989  1.0000
  O   O7        1.0  0.7764056704463692  0.4148378466912994  0.7558077251174065  1.0000
  O   O8        1.0  0.7763682094672429  0.4287553264130217  0.37818223171584897  1.0000
  O   O9        1.0  0.7764212101439539  0.23297164409607363  0.5739692129859342  1.0000
