data_image0
_chemical_formula_structural       NC10NC5H10C12SCH12C12NCOH11Zn2C4O8
_chemical_formula_sum              "N3 C45 H33 S1 O9 Zn2"
_cell_length_a       19.4436361288709
_cell_length_b       10.299776766347529
_cell_length_c       10.299148425239203
_cell_angle_alpha    85.5384344644465
_cell_angle_beta     89.68967150439464
_cell_angle_gamma    89.39962546058797

_space_group_name_H-M_alt    "P 1"
_space_group_IT_number       1

loop_
  _space_group_symop_operation_xyz
  'x, y, z'

loop_
  _atom_site_type_symbol
  _atom_site_label
  _atom_site_symmetry_multiplicity
  _atom_site_fract_x
  _atom_site_fract_y
  _atom_site_fract_z
  _atom_site_occupancy
  N   N1        1.0  0.6475984770854691  0.40989409183262615  0.5620551286016364  1.0000
  C   C1        1.0  0.588759733938749  0.419787344658374  0.5764406614075066  1.0000
  C   C2        1.0  0.5154269442705713  0.43212552536002935  0.5944349255996788  1.0000
  C   C3        1.0  0.47325593136512495  0.40018515109804564  0.49975255110395  1.0000
  C   C4        1.0  0.3973490325047371  0.4106201582601394  0.5050815376309157  1.0000
  C   C5        1.0  0.3576057149817479  0.3858090151635263  0.6121607620610481  1.0000
  C   C6        1.0  0.2814854972809656  0.3897332782821623  0.5992006059397113  1.0000
  C   C7        1.0  0.24090518856557783  0.4473382922066098  0.6929811170599767  1.0000
  C   C8        1.0  0.1692419808236723  0.4509822598104303  0.6824366062043064  1.0000
  C   C9        1.0  0.1371643727541312  0.39662503663716975  0.5783981128824407  1.0000
  C   C10       1.0  0.0633719218127977  0.4003303389344959  0.5676983114182184  1.0000
  N   N2        1.0  0.0040477963027225  0.40330920746311794  0.5590963804277473  1.0000
  C   C11       1.0  0.1770198837891002  0.33831271299093446  0.4850008306828306  1.0000
  C   C12       1.0  0.24869954980670161  0.3346146714582734  0.4952935426270333  1.0000
  C   C13       1.0  0.3857352668493432  0.3452709136059553  0.7432632090597313  1.0000
  C   C14       1.0  0.4443876076830089  0.3883642383253507  0.7905113552264411  1.0000
  C   C15       1.0  0.4885838006085927  0.4862654161158144  0.7161431703428787  1.0000
  H   H1        1.0  0.4953671548375865  0.3711220065160974  0.40943755192982034  1.0000
  H   H2        1.0  0.37265402900880534  0.4331698539054831  0.4119173269319103  1.0000
  H   H3        1.0  0.264761701834159  0.490580670983938  0.7738376138909069  1.0000
  H   H4        1.0  0.13888350001767993  0.4962530469248867  0.755365144307578  1.0000
  H   H5        1.0  0.1526914274347215  0.29526579080726734  0.4044788514360178  1.0000
  H   H6        1.0  0.2783927509058676  0.2871001084871201  0.42306127935463866  1.0000
  H   H7        1.0  0.3547759343972815  0.2810164727124793  0.8075117657827173  1.0000
  H   H8        1.0  0.4595357551364009  0.35423927870032856  0.8884514401583539  1.0000
  H   H9        1.0  0.4584609605649991  0.5769935824895411  0.6908938313901543  1.0000
  H   H10       1.0  0.5318594473740248  0.5118136499045982  0.7792341238077671  1.0000
  C   C16       1.0  0.8258912769771112  0.025235258157352503  0.5605736184983032  1.0000
  C   C17       1.0  0.8300057778771937  0.013540922160044655  0.6970623242460947  1.0000
  C   C18       1.0  0.8320244076983235  0.8904779091296575  0.7662281464461971  1.0000
  C   C19       1.0  0.8298742601040298  0.778255569078594  0.6970786072336526  1.0000
  C   C20       1.0  0.8257615962345627  0.7879579239392758  0.5605891368063198  1.0000
  C   C21       1.0  0.8237927394044742  0.9118858820372141  0.4931006755670415  1.0000
  C   C22       1.0  0.8363695057250454  0.8791706673024243  0.9106178598981003  1.0000
  C   C23       1.0  0.7969957325103855  0.786406934462533  0.9849922323374019  1.0000
  C   C24       1.0  0.8011056352207836  0.7759995722923053  0.12087634750472698  1.0000
  C   C25       1.0  0.8444175805260222  0.858079798554853  0.184194306611827  1.0000
  C   C26       1.0  0.8839553016631476  0.9502661470322958  0.11119172831318247  1.0000
  C   C27       1.0  0.8799462536710957  0.9610215391387383  0.9752963603162059  1.0000
  S   S1        1.0  0.8497669969951479  0.8442637822282114  0.35855169191528025  1.0000
  C   C28       1.0  0.7806501037741528  0.9615943460479222  0.378655392225695  1.0000
  H   H11       1.0  0.824350524239572  0.3571443131096046  0.5085650012724747  1.0000
  H   H12       1.0  0.8307016128307462  0.10033720595830031  0.7500183571266803  1.0000
  H   H13       1.0  0.832363474381275  0.6831739964496044  0.749823604955129  1.0000
  H   H14       1.0  0.8206190471611547  0.9201390680465515  0.3878054386577332  1.0000
  H   H15       1.0  0.8241601458341746  0.46420182410436145  0.5085856894705052  1.0000
  H   H16       1.0  0.7623788774743853  0.7231018713151198  0.9381623470584441  1.0000
  H   H17       1.0  0.7703475107713973  0.7044824240329965  0.17685681020368804  1.0000
  H   H18       1.0  0.9178399268483652  0.01363995459226186  0.15961673029825119  1.0000
  H   H19       1.0  0.9115722621499416  0.03215311857875047  0.9207218292530155  1.0000
  H   H20       1.0  0.7944254307441616  0.05768981499720982  0.32966018346750803  1.0000
  H   H21       1.0  0.7726660807441643  0.9723776322946319  0.4840078530729771  1.0000
  H   H22       1.0  0.7322581321607966  0.9269732569550921  0.33693221488009795  1.0000
  C   C29       1.0  0.8258781309906447  0.4067514776239016  0.17918472737265745  1.0000
  C   C30       1.0  0.8956547754038368  0.441021003767994  0.17463678874366018  1.0000
  C   C31       1.0  0.9309237798873028  0.4581841868809373  0.05519965408905514  1.0000
  C   C32       1.0  0.8955098400985322  0.4406835342085216  0.939380830352611  1.0000
  C   C33       1.0  0.8257747109567154  0.40644171451658617  0.9419779687690473  1.0000
  C   C34       1.0  0.791367973696537  0.3896674666572417  0.06238233902745116  1.0000
  C   C35       1.0  0.004697540190781613  0.4944137360746681  0.05148148747774006  1.0000
  C   C36       1.0  0.0509240856155313  0.43618940195546596  0.9674986590040158  1.0000
  C   C37       1.0  0.12031185357442453  0.4704205618517212  0.9641492622742689  1.0000
  C   C38       1.0  0.14509797450730844  0.5622347074034681  0.04545425610859821  1.0000
  C   C39       1.0  0.09880285736879668  0.6223065051853343  0.12786929200485364  1.0000
  C   C40       1.0  0.029383988772527347  0.5881825873073481  0.13131579014384775  1.0000
  N   N3        1.0  0.21652148863532683  0.5971218673635783  0.03832669202044703  1.0000
  C   C41       1.0  0.25607747860987384  0.6330637932683623  0.14672914990319863  1.0000
  O   O1        1.0  0.23280778820308567  0.6193312653912209  0.2612822077399859  1.0000
  H   H23       1.0  0.6942877104584304  0.3413035348665576  0.39512068377462817  1.0000
  H   H24       1.0  0.9229410515028489  0.45271222336935124  0.26433693444211337  1.0000
  H   H25       1.0  0.9221931557489209  0.45558212457286107  0.8469267395036293  1.0000
  H   H26       1.0  0.7375803304657992  0.36325234502224957  0.06510066562806749  1.0000
  H   H27       1.0  0.798954730872646  0.3932350565956908  0.6155037426275753  1.0000
  H   H28       1.0  0.03359599777043454  0.36300048313520006  0.9054682562691241  1.0000
  H   H29       1.0  0.15507216782916378  0.42424093542905617  0.8989049607742672  1.0000
  H   H30       1.0  0.11574027343177384  0.6976671569345765  0.18749636978072837  1.0000
  H   H31       1.0  0.9947043786385461  0.6370269491179368  0.194666898111566  1.0000
  H   H32       1.0  0.24297591357855208  0.5876939340068199  0.9509238644843845  1.0000
  H   H33       1.0  0.30771455871208464  0.6691492686228291  0.13047736610184746  1.0000
  Zn  Zn1       1.0  0.7504620517212475  0.4079903620481471  0.5612088104059558  1.0000
  Zn  Zn2       1.0  0.9011842135378172  0.4052023252985897  0.5599533803642338  1.0000
  C   C42       1.0  0.825793610938041  0.4013266494779064  0.7977936502151304  1.0000
  C   C43       1.0  0.8258542999064117  0.41186764598025793  0.32336865435481155  1.0000
  C   C44       1.0  0.8257832516991331  0.6437892780454237  0.5554106670862959  1.0000
  C   C45       1.0  0.8258646079703258  0.16940345804398627  0.5657517071239988  1.0000
  O   O2        1.0  0.8830445778545541  0.4125209676979549  0.3712816681132449  1.0000
  O   O3        1.0  0.8829979665525359  0.3985562928140449  0.7489274202105853  1.0000
  O   O4        1.0  0.8829888300929188  0.5943479454553022  0.5532014528842535  1.0000
  O   O5        1.0  0.8830536628945294  0.21672932533777067  0.5670075384864124  1.0000
  O   O6        1.0  0.7685925509304594  0.5964633629618024  0.5541546527053622  1.0000
  O   O7        1.0  0.7686016871309943  0.40067327064213654  0.7498805508129254  1.0000
  O   O8        1.0  0.7686482986981463  0.4146379009036618  0.37223323720008983  1.0000
  O   O9        1.0  0.7686573837236875  0.21884624921524165  0.5679592049480067  1.0000
