data_image0
_chemical_formula_structural       NC12NC2H8C13OH12C12NH11Zn2C4O8
_chemical_formula_sum              "N3 C43 H31 O9 Zn2"
_cell_length_a       19.240039667572717
_cell_length_b       10.299150109392551
_cell_length_c       10.299774167527174
_cell_angle_alpha    85.55710761189597
_cell_angle_beta     89.99323073403258
_cell_angle_gamma    89.97992514300192

_space_group_name_H-M_alt    "P 1"
_space_group_IT_number       1

loop_
  _space_group_symop_operation_xyz
  'x, y, z'

loop_
  _atom_site_type_symbol
  _atom_site_label
  _atom_site_symmetry_multiplicity
  _atom_site_fract_x
  _atom_site_fract_y
  _atom_site_fract_z
  _atom_site_occupancy
  N   N1        1.0  0.6543012415726265  0.4209703470420696  0.5670532274012117  1.0000
  C   C1        1.0  0.5941528727447813  0.4209704310061717  0.5670531454406731  1.0000
  C   C2        1.0  0.5193348355903122  0.4209705482612629  0.5670530081040601  1.0000
  C   C3        1.0  0.48286666672805406  0.35653018239248957  0.6704812777066633  1.0000
  C   C4        1.0  0.41019593394557663  0.3564193174493664  0.6705678519889118  1.0000
  C   C5        1.0  0.3730026006500313  0.42097064076760926  0.5670527804025656  1.0000
  C   C6        1.0  0.4101849456943181  0.4855221511436565  0.4635379032876312  1.0000
  C   C7        1.0  0.4828556495119771  0.4854110507179048  0.46362460014118345  1.0000
  C   C8        1.0  0.2957975102311959  0.4209705620724393  0.5670526850167161  1.0000
  C   C9        1.0  0.2586282928077538  0.30771291493790875  0.6089580156269649  1.0000
  C   C10       1.0  0.18595759015510369  0.30781979715317087  0.6088666598553876  1.0000
  C   C11       1.0  0.1494652233283697  0.420970432906959  0.567052745965871  1.0000
  C   C12       1.0  0.07464718617901078  0.4209703192272376  0.5670529946521456  1.0000
  N   N2        1.0  0.0144988693213763  0.4209702784609475  0.5670532030752897  1.0000
  C   C13       1.0  0.1859203673473749  0.5341211444790481  0.5252387791635513  1.0000
  C   C14       1.0  0.2585910492732497  0.5342282067824042  0.5251472607466898  1.0000
  H   H1        1.0  0.5105857828842423  0.3066392460930807  0.7512349964152281  1.0000
  H   H2        1.0  0.383106657092613  0.3073268534597411  0.7524367705039117  1.0000
  H   H3        1.0  0.3830876917572982  0.5346146421731093  0.38166893391777257  1.0000
  H   H4        1.0  0.5105663048202188  0.5353018868268535  0.3828711572479515  1.0000
  H   H5        1.0  0.2857363156727592  0.2185594676961562  0.6401529334041283  1.0000
  H   H6        1.0  0.1582572618428497  0.21956590129648967  0.6410942085423312  1.0000
  H   H7        1.0  0.1581908722155198  0.6223750158011396  0.4930112450342885  1.0000
  H   H8        1.0  0.2856695052134386  0.6233817331940918  0.49395229817451103  1.0000
  C   C15       1.0  0.834468890243937  0.03957072099673442  0.5671973174305691  1.0000
  C   C16       1.0  0.8331801585063464  0.02780600029832825  0.7040014868199316  1.0000
  C   C17       1.0  0.8324662857111382  0.9047063611582568  0.7731004227298821  1.0000
  C   C18       1.0  0.8330461789209352  0.7925505507507007  0.7036381092804187  1.0000
  C   C19       1.0  0.8343378958735215  0.8023598901813757  0.5669203347189691  1.0000
  C   C20       1.0  0.8350436143966112  0.9263306208422808  0.49949890688107335  1.0000
  C   C21       1.0  0.8310968993338853  0.8932423449996605  0.9177336044295203  1.0000
  C   C22       1.0  0.7883554117742616  0.8003817285449207  0.9857517609395376  1.0000
  C   C23       1.0  0.7870437941338262  0.7896755101013834  0.12185144037532225  1.0000
  C   C24       1.0  0.8289058133118657  0.8706719796422798  0.19239334302273559  1.0000
  C   C25       1.0  0.8709823155023235  0.9644864161036025  0.12501772741648332  1.0000
  C   C26       1.0  0.8723100665939036  0.9753684314933884  0.9889177592785166  1.0000
  C   C27       1.0  0.8260350089650615  0.8615216608510395  0.3384726098928802  1.0000
  O   O1        1.0  0.7740852140067788  0.944708682804914  0.37871134590517375  1.0000
  H   H9        1.0  0.8364498886631417  0.2690700186430557  0.3089730369756598  1.0000
  H   H10       1.0  0.8317651029835151  0.11459333861654719  0.7570075228115394  1.0000
  H   H11       1.0  0.8334394421906973  0.6974418638574253  0.7564690907025593  1.0000
  H   H12       1.0  0.8360379876596669  0.9346130664320016  0.3940443964422309  1.0000
  H   H13       1.0  0.8347879554795523  0.4786574381668067  0.5143338836738296  1.0000
  H   H14       1.0  0.7551201930166935  0.7373595422526676  0.9336455714219429  1.0000
  H   H15       1.0  0.7532311596085455  0.7183589937734247  0.1722245922748885  1.0000
  H   H16       1.0  0.902937259009908  0.02906176680663175  0.17787008712459762  1.0000
  H   H17       1.0  0.9061459379908694  0.04713059061381597  0.9393512119607286  1.0000
  H   H18       1.0  0.8771564462088849  0.889361283564488  0.3786406810459111  1.0000
  H   H19       1.0  0.8147377923400669  0.7595101971784597  0.37628338073192036  1.0000
  H   H20       1.0  0.7743366368654041  0.935056563837402  0.4753333935275016  1.0000
  C   C28       1.0  0.8344270597131851  0.4208507995097295  0.18570676543804643  1.0000
  C   C29       1.0  0.7663663951113948  0.3715449438076419  0.18854544682768792  1.0000
  C   C30       1.0  0.7318551628252113  0.3466771034883016  0.07283596780839008  1.0000
  C   C31       1.0  0.7663186065848097  0.3717762636066164  0.9532406517944789  1.0000
  C   C32       1.0  0.8343797136763355  0.42107989263098844  0.9484108268515361  1.0000
  C   C33       1.0  0.8680527047527052  0.4453415684659734  0.06516317940929639  1.0000
  C   C34       1.0  0.6598509241595552  0.294514932578114  0.07689247664001031  1.0000
  C   C35       1.0  0.640334792707972  0.19605309148582406  0.17222697621451766  1.0000
  C   C36       1.0  0.5725611656517853  0.14701358479253823  0.17591123772379746  1.0000
  C   C37       1.0  0.5232316052092437  0.19554320135808156  0.08458902186995276  1.0000
  C   C38       1.0  0.5422891634743642  0.2936148502101539  0.9894140287591071  1.0000
  C   C39       1.0  0.6100419032424163  0.3427556269619183  0.9854634503745925  1.0000
  N   N3        1.0  0.4539149238480813  0.14532754805592485  0.08849391093261905  1.0000
  H   H21       1.0  0.8603731184766339  0.43958491749703454  0.5120827180038283  1.0000
  H   H22       1.0  0.7396857050267199  0.3540403881025991  0.2808374918075185  1.0000
  H   H23       1.0  0.7402929815552184  0.35109904405978964  0.8639177499752217  1.0000
  H   H24       1.0  0.9205585249721974  0.4833778792008394  0.06220528061321984  1.0000
  H   H25       1.0  0.8603036389834342  0.4399218947581356  0.6191128180621126  1.0000
  H   H26       1.0  0.6777284916758645  0.15578163997672823  0.24289141375914047  1.0000
  H   H27       1.0  0.5585537723303489  0.07096077954996471  0.24975720686660385  1.0000
  H   H28       1.0  0.5046056046782056  0.33222085657520184  0.9184801429526837  1.0000
  H   H29       1.0  0.6232366421273164  0.41967499728778557  0.9119491845168404  1.0000
  H   H30       1.0  0.4167800401445381  0.18088685541628102  0.020816463116035022  1.0000
  H   H31       1.0  0.439218851897861  0.0722202522341382  0.1590916755811147  1.0000
  Zn  Zn1       1.0  0.7582465055461655  0.4209668620187694  0.5670607097351665  1.0000
  Zn  Zn2       1.0  0.9105536252805486  0.4209631723346754  0.5670563230197494  1.0000
  C   C40       1.0  0.8343880098605326  0.4158624674624196  0.8042453367076321  1.0000
  C   C41       1.0  0.8344137838658575  0.4260692056404429  0.3298718228650852  1.0000
  C   C42       1.0  0.8343593997344917  0.6581749848877825  0.5617977292053995  1.0000
  C   C43       1.0  0.8344423422838019  0.18375512780900904  0.5723195001710495  1.0000
  O   O2        1.0  0.8922090875272559  0.42781348399546215  0.3782532704236914  1.0000
  O   O3        1.0  0.8921902861221355  0.4141144088089437  0.7558601862598371  1.0000
  O   O4        1.0  0.8921664038313439  0.6097848315143712  0.5600820273767606  1.0000
  O   O5        1.0  0.892232917850392  0.23214307055302075  0.5740313319345292  1.0000
  O   O6        1.0  0.7765671610013773  0.6097869638030953  0.5600857008150522  1.0000
  O   O7        1.0  0.7765910430253202  0.41411810150641015  0.7558637898890637  1.0000
  O   O8        1.0  0.7766098445813364  0.4278171309644123  0.3782553127377162  1.0000
  O   O9        1.0  0.776633674897183  0.23214670826165573  0.5740334716154589  1.0000
