data_image0
_chemical_formula_structural       NC8NC6H8C13OH12C12BrH9Zn2C4O8
_chemical_formula_sum              "N2 C43 H29 O9 Br1 Zn2"
_cell_length_a       17.457602349358154
_cell_length_b       10.299150109392551
_cell_length_c       10.299148005577397
_cell_angle_alpha    85.53215182685325
_cell_angle_beta     92.84953389996222
_cell_angle_gamma    91.67070309183428

_space_group_name_H-M_alt    "P 1"
_space_group_IT_number       1

loop_
  _space_group_symop_operation_xyz
  'x, y, z'

loop_
  _atom_site_type_symbol
  _atom_site_label
  _atom_site_symmetry_multiplicity
  _atom_site_fract_x
  _atom_site_fract_y
  _atom_site_fract_z
  _atom_site_occupancy
  N   N1        1.0  0.7225261899249585  0.4531356404496367  0.6259155151372375  1.0000
  C   C1        1.0  0.6614598706297526  0.407208975371395  0.6153168718592634  1.0000
  C   C2        1.0  0.5854907826945651  0.3500819173365446  0.6021416996964906  1.0000
  C   C3        1.0  0.5269340099197664  0.3902351586519781  0.6770263599926603  1.0000
  C   C4        1.0  0.452402434849883  0.3352264113615149  0.6644648416914467  1.0000
  C   C5        1.0  0.39025312842282117  0.3776222844877286  0.7437705855049894  1.0000
  C   C6        1.0  0.3157182520056181  0.39610030902604043  0.6879984510130925  1.0000
  C   C7        1.0  0.2571614816492858  0.4360695964096537  0.7629911377994445  1.0000
  C   C8        1.0  0.1811889424523817  0.45515384782561563  0.7050032481145967  1.0000
  N   N2        1.0  0.1201199386129998  0.4704912058209343  0.6583811382761198  1.0000
  C   C9        1.0  0.2726472395207056  0.4578039402882792  0.8942643994742938  1.0000
  C   C10       1.0  0.3463972319511468  0.439714869874424  0.9504239961128538  1.0000
  C   C11       1.0  0.4049422377830958  0.3999255798259924  0.8758889758395934  1.0000
  C   C12       1.0  0.4377167995974932  0.23938717416043565  0.575585958023888  1.0000
  C   C13       1.0  0.49626169175312074  0.19951257109045972  0.5011012072109156  1.0000
  C   C14       1.0  0.5700083291014482  0.25463361862138956  0.5142126488396943  1.0000
  H   H1        1.0  0.5392455331945956  0.4654244488337771  0.7436305447716316  1.0000
  H   H2        1.0  0.3034040575470655  0.3811444052715809  0.5859766561047774  1.0000
  H   H3        1.0  0.2277642853884879  0.4886798988953176  0.953090261304866  1.0000
  H   H4        1.0  0.3581975225157059  0.45622859367055413  0.052071929706309916  1.0000
  H   H5        1.0  0.4614180533791206  0.3849258302697567  0.9220024540373895  1.0000
  H   H6        1.0  0.3812436564785267  0.19405022180817122  0.5649509734992761  1.0000
  H   H7        1.0  0.484464095204154  0.1254399970690998  0.43329824336720524  1.0000
  H   H8        1.0  0.6148913518392968  0.22288782734926227  0.4558982562589675  1.0000
  C   C15       1.0  0.9213989984419905  0.08041705621709738  0.6422986604070275  1.0000
  C   C16       1.0  0.9199483317556135  0.06852925562544598  0.7789973482721149  1.0000
  C   C17       1.0  0.9191461318794251  0.9453644168114773  0.8480373329343691  1.0000
  C   C18       1.0  0.9198005170111541  0.833267512459588  0.778621866398975  1.0000
  C   C19       1.0  0.9212544610711508  0.8432000371086632  0.6420098491700019  1.0000
  C   C20       1.0  0.9220473150651439  0.9672348267458403  0.5746467685175507  1.0000
  C   C21       1.0  0.9176048266566934  0.9337699445355102  0.9925583744149218  1.0000
  C   C22       1.0  0.8704118843754878  0.8388195730513088  0.056729421894291976  1.0000
  C   C23       1.0  0.8689361006459755  0.8279894860380456  0.19272150205580862  1.0000
  C   C24       1.0  0.915129768590308  0.9109715677146788  0.2670420573515526  1.0000
  C   C25       1.0  0.9615885538854334  0.006843431459119476  0.2034536638158182  1.0000
  C   C26       1.0  0.963082146116862  0.017850092913305637  0.06746274908534389  1.0000
  C   C27       1.0  0.9119308692226445  0.9016178046157087  0.4128739695995195  1.0000
  O   O1        1.0  0.8545793172486028  0.9822837666122847  0.4484334567498305  1.0000
  H   H9        1.0  0.9236387769963925  0.31012691600594433  0.384232782352262  1.0000
  H   H10       1.0  0.9183754615871906  0.15522478270115925  0.8318799775095302  1.0000
  H   H11       1.0  0.9202237431458681  0.7381542234692249  0.8314924165369901  1.0000
  H   H12       1.0  0.9231666147682897  0.9756121940193048  0.46927365461162873  1.0000
  H   H13       1.0  0.9217620621610464  0.5195427124240027  0.5894598596807124  1.0000
  H   H14       1.0  0.8337368682846407  0.7742192257356485  0.0016235774648308832  1.0000
  H   H15       1.0  0.8316026432252887  0.7550213037352738  0.24005095195399084  1.0000
  H   H16       1.0  0.9968502217707219  0.07293492242990873  0.259190341662502  1.0000
  H   H17       1.0  0.0004410869848145982  0.09126467807546645  0.02094206112143815  1.0000
  H   H18       1.0  0.9683515246882786  0.9319027305284219  0.45765290192582886  1.0000
  H   H19       1.0  0.8994529872032818  0.7990451464091128  0.4496694394425733  1.0000
  H   H20       1.0  0.8548369701306082  0.9726006900840052  0.545085705882514  1.0000
  C   C28       1.0  0.9214312889417312  0.46186517931736937  0.2607745680091891  1.0000
  C   C29       1.0  0.8492574002414247  0.5194994531839419  0.2494220781553651  1.0000
  C   C30       1.0  0.8125556828978511  0.5486632774733746  0.1265190567754777  1.0000
  C   C31       1.0  0.8490013662711976  0.5194154660007642  0.014124163163250714  1.0000
  C   C32       1.0  0.9212221565654043  0.4617519701004238  0.023533882469785272  1.0000
  C   C33       1.0  0.9569922617341117  0.4333299174773333  0.14724637536043517  1.0000
  C   C34       1.0  0.736204967174867  0.609635339586788  0.1155544528928103  1.0000
  C   C35       1.0  0.7200708353557457  0.71025707586306  0.19427822610011436  1.0000
  C   C36       1.0  0.6481749039558306  0.7675325956596342  0.18376072946900757  1.0000
  C   C37       1.0  0.5915958506088875  0.7251158784218565  0.09479061267500999  1.0000
  C   C38       1.0  0.6069592921320748  0.6252474300493764  0.016151157381069536  1.0000
  C   C39       1.0  0.6787900412145033  0.5677470814419971  0.026270873694329566  1.0000
  Br  Br1       1.0  0.49343113606983124  0.8035082395261497  0.0806946789741112  1.0000
  H   H21       1.0  0.9492081326572052  0.43974992676805225  0.5926139723162092  1.0000
  H   H22       1.0  0.8209438422100908  0.5402115513983643  0.33644166606189363  1.0000
  H   H23       1.0  0.8214446096619931  0.5433095769891207  0.9190484185025145  1.0000
  H   H24       1.0  0.01266289323607106  0.3888791507935523  0.15528688148466796  1.0000
  H   H25       1.0  0.057749186411947706  0.3536597885290671  0.8339625506021586  1.0000
  H   H26       1.0  0.7633525638773799  0.7457662322062459  0.26270777664376  1.0000
  H   H27       1.0  0.6365748052578744  0.8450989245444507  0.24458966731190723  1.0000
  H   H28       1.0  0.5632233223973696  0.5918706068658741  0.9473767329596336  1.0000
  H   H29       1.0  0.6891065344417726  0.48943537396772707  0.9655384671016667  1.0000
  Zn  Zn1       1.0  0.8372631559350568  0.4581405976474544  0.6352918926780091  1.0000
  Zn  Zn2       1.0  0.005382957455646098  0.46547559845461994  0.6490153975949884  1.0000
  C   C40       1.0  0.9212609655951582  0.45659923477125663  0.8793578880361932  1.0000
  C   C41       1.0  0.9213869833130812  0.46701868014801295  0.40494967894657785  1.0000
  C   C42       1.0  0.9212792510882499  0.6990184514914162  0.6368887821141633  1.0000
  C   C43       1.0  0.9213686407291487  0.2245979004991876  0.6474188500171818  1.0000
  O   O2        1.0  0.9851727035263905  0.47152617053290546  0.4585441639739487  1.0000
  O   O3        1.0  0.9850742849967232  0.4576578605407453  0.8361788522149445  1.0000
  O   O4        1.0  0.9850881903309634  0.6534144061270752  0.6403832629550645  1.0000
  O   O5        1.0  0.9851587408491869  0.2757696317489853  0.6543396511699926  1.0000
  O   O6        1.0  0.8574873151704804  0.6478465618514289  0.6299676344130145  1.0000
  O   O7        1.0  0.8574734095560455  0.4520915766921032  0.8257631538343297  1.0000
  O   O8        1.0  0.857571828573401  0.4659598416590174  0.44812690416989454  1.0000
  O   O9        1.0  0.8575578658681253  0.27020329357102657  0.6439224887397843  1.0000
