data_image0
_chemical_formula_structural       NC10NC5H10C12NCOCH13C13NH13Zn2C4O8
_chemical_formula_sum              "N4 C46 H36 O9 Zn2"
_cell_length_a       19.4436361288709
_cell_length_b       10.299155265289647
_cell_length_c       10.299780419254978
_cell_angle_alpha    85.55647119552991
_cell_angle_beta     89.69141269769756
_cell_angle_gamma    89.39615277754326

_space_group_name_H-M_alt    "P 1"
_space_group_IT_number       1

loop_
  _space_group_symop_operation_xyz
  'x, y, z'

loop_
  _atom_site_type_symbol
  _atom_site_label
  _atom_site_symmetry_multiplicity
  _atom_site_fract_x
  _atom_site_fract_y
  _atom_site_fract_z
  _atom_site_occupancy
  N   N1        1.0  0.6475360003337779  0.4091071360744132  0.5617697601721241  1.0000
  C   C1        1.0  0.5886971299955578  0.41901030972389064  0.5761505843129113  1.0000
  C   C2        1.0  0.5153641823847521  0.4313608968239768  0.5941389702546827  1.0000
  C   C3        1.0  0.4731929667594468  0.39935805695545623  0.4994771313595856  1.0000
  C   C4        1.0  0.3972858085716934  0.40979731693955257  0.504802239843144  1.0000
  C   C5        1.0  0.3575446302741125  0.38505161823233935  0.6118774444834729  1.0000
  C   C6        1.0  0.2814241247779339  0.3889680390181103  0.5989174845263154  1.0000
  C   C7        1.0  0.2408432028558879  0.4466371396671236  0.6926694709781029  1.0000
  C   C8        1.0  0.169179746819542  0.4502747651713275  0.6821249775340246  1.0000
  C   C9        1.0  0.1371025197236296  0.3958472601506835  0.5781151194752174  1.0000
  C   C10       1.0  0.0633098165907873  0.39954612760181973  0.5674153332618168  1.0000
  N   N2        1.0  0.0039854883338561  0.4025198229450935  0.5588134145158781  1.0000
  C   C11       1.0  0.17695867100869112  0.3374710312185565  0.4847465424955675  1.0000
  C   C12       1.0  0.2486385838140437  0.33377916829831156  0.4950392819117857  1.0000
  C   C13       1.0  0.3856771197861021  0.34459277643638875  0.7429781721863227  1.0000
  C   C14       1.0  0.4443287106207238  0.38771958986818844  0.7902075123764429  1.0000
  C   C15       1.0  0.48852088923343234  0.4855821996213143  0.715816694516157  1.0000
  H   H1        1.0  0.49530395285660733  0.370235447899977  0.4091812780691504  1.0000
  H   H2        1.0  0.3725889136657927  0.43229015489645306  0.41164122311913887  1.0000
  H   H3        1.0  0.2646993887855972  0.48993422508659723  0.7735033988337381  1.0000
  H   H4        1.0  0.138820774289638  0.49559542987616134  0.7550311839453048  1.0000
  H   H5        1.0  0.1526305401200006  0.29436963013654727  0.4042470336344628  1.0000
  H   H6        1.0  0.278332355821553  0.2862149755742023  0.4228299805215645  1.0000
  H   H7        1.0  0.3547206183167516  0.2803733899138974  0.8072398762749933  1.0000
  H   H8        1.0  0.4594791730367864  0.353653513471466  0.8881475234760978  1.0000
  H   H9        1.0  0.45839488426451863  0.5763021773993438  0.6905415523303864  1.0000
  H   H10       1.0  0.5317965373937579  0.5111724209021986  0.7788926200188411  1.0000
  C   C16       1.0  0.8258408385361238  0.024414541919573818  0.5604096477149216  1.0000
  C   C17       1.0  0.8141084736790475  0.034314124758443754  0.4255876723758769  1.0000
  C   C18       1.0  0.8080933197293069  0.9221969542316452  0.3571129243534339  1.0000
  C   C19       1.0  0.8139440573755933  0.7990573541299331  0.42528126465949345  1.0000
  C   C20       1.0  0.8256872512519738  0.7872023478321797  0.5601847371798723  1.0000
  C   C21       1.0  0.831566406282309  0.9003993518195011  0.6269183811589356  1.0000
  C   C22       1.0  0.7956827434248154  0.9336431711455446  0.21448754706963902  1.0000
  C   C23       1.0  0.8305737369567343  0.02709882417418963  0.13278413736862804  1.0000
  C   C24       1.0  0.8189002263581971  0.037739486534927646  0.9985641064870912  1.0000
  C   C25       1.0  0.7725299935559597  0.9542469375997118  0.9432005683365015  1.0000
  C   C26       1.0  0.7367988739687038  0.8626230871930092  0.02484278935307871  1.0000
  C   C27       1.0  0.7484974396320747  0.8517259375892949  0.1590252786031916  1.0000
  N   N3        1.0  0.7586434985148777  0.9647268872384526  0.8057607049652549  1.0000
  C   C28       1.0  0.8088760623020568  0.0007224649235608727  0.7071306606883025  1.0000
  O   O1        1.0  0.8719698914362953  0.0020943637986483576  0.7344645734648858  1.0000
  C   C29       1.0  0.7869511572574623  0.027556583950774538  0.5687786759500701  1.0000
  H   H11       1.0  0.8303749575924964  0.3480825305151709  0.6122620752552963  1.0000
  H   H12       1.0  0.808673165578507  0.12945300487998845  0.37382538170393076  1.0000
  H   H13       1.0  0.8102506808285986  0.712319758953771  0.3726857516270532  1.0000
  H   H14       1.0  0.840618139933297  0.8920486887475291  0.7309089235543895  1.0000
  H   H15       1.0  0.8482637785175979  0.5575356982578865  0.8146737563588908  1.0000
  H   H16       1.0  0.8672957596613696  0.09147371018395312  0.17257013889142403  1.0000
  H   H17       1.0  0.8452934171287716  0.11269970401481078  0.9387673824890372  1.0000
  H   H18       1.0  0.7000109518555269  0.7989533578184675  0.9841903364083415  1.0000
  H   H19       1.0  0.7198940814746062  0.7804230200276346  0.2196732441097493  1.0000
  H   H20       1.0  0.7102039815741839  0.9367494912666575  0.7750903668147267  1.0000
  H   H21       1.0  0.7373032817188555  0.08191918947933585  0.5647369975688457  1.0000
  H   H22       1.0  0.7805922199102161  0.9340586496045556  0.5236093267737023  1.0000
  H   H23       1.0  0.8261124925630196  0.08691701625799708  0.5130610182641835  1.0000
  C   C30       1.0  0.8258108845232658  0.405722681364469  0.17894268276944403  1.0000
  C   C31       1.0  0.8755879571458429  0.503839344666678  0.1698389107942162  1.0000
  C   C32       1.0  0.9007573423938046  0.5536521075651879  0.04808244906897263  1.0000
  C   C33       1.0  0.8754934592257586  0.5040133365494579  0.9345394675977117  1.0000
  C   C34       1.0  0.8257172042001655  0.4058941386038557  0.9416516801866424  1.0000
  C   C35       1.0  0.801152757628872  0.35730171195794025  0.06430518175333799  1.0000
  C   C36       1.0  0.9534195307207128  0.6574484941708125  0.03954299806706274  1.0000
  C   C37       1.0  0.9487490058557204  0.7621202855213047  0.9437244272060323  1.0000
  C   C38       1.0  0.998338171239458  0.859727841176527  0.9357724171217789  1.0000
  C   C39       1.0  0.05316495086661188  0.8550112519517894  0.023993268219814734  1.0000
  C   C40       1.0  0.05849487288872668  0.7500484164802688  0.11874968037704536  1.0000
  C   C41       1.0  0.008919933543640512  0.6524158970965053  0.12687435046889006  1.0000
  C   C42       1.0  0.10745653089489027  0.9582334819339162  0.013056646131686334  1.0000
  N   N4        1.0  0.16018885155189388  0.924604604497338  0.9197511007552195  1.0000
  H   H24       1.0  0.8068714507932568  0.3682882555132101  0.5098682468608082  1.0000
  H   H25       1.0  0.8942239757722749  0.54300375642404  0.2575425141132568  1.0000
  H   H26       1.0  0.8954245524525273  0.5408027698923723  0.840555649169255  1.0000
  H   H27       1.0  0.7627522420357008  0.2816081231209666  0.07055976163273203  1.0000
  H   H28       1.0  0.8067371140632397  0.3685294640813994  0.6169065511709237  1.0000
  H   H29       1.0  0.9063295853149894  0.7692510982289689  0.8757726567341528  1.0000
  H   H30       1.0  0.9938923196815288  0.939216025450005  0.8609464847260604  1.0000
  H   H31       1.0  0.10116955882428136  0.7435651943294859  0.18617261594889767  1.0000
  H   H32       1.0  0.014564733566885035  0.5718883219863  0.20022475314580057  1.0000
  H   H33       1.0  0.08367207374445562  0.05370661807164412  0.9799451964266646  1.0000
  H   H34       1.0  0.13117329514992537  0.969106371447557  0.10971327573810963  1.0000
  H   H35       1.0  0.19488090414550108  0.0016607459816615489  0.9095008231963044  1.0000
  H   H36       1.0  0.1877984247666551  0.843785014284381  0.9603183958785619  1.0000
  Zn  Zn1       1.0  0.7503996238810621  0.4072027098459101  0.5609241355555143  1.0000
  Zn  Zn2       1.0  0.9011218571258959  0.4044136430586458  0.5596697230368239  1.0000
  C   C43       1.0  0.8257344001632392  0.40068770196560255  0.7974849167796505  1.0000
  C   C44       1.0  0.8257887263801477  0.4109302592594153  0.32310905509302557  1.0000
  C   C45       1.0  0.8257133590077158  0.6430180899276523  0.5550523160229428  1.0000
  C   C46       1.0  0.8258097164104409  0.16859831183947782  0.5655417259738564  1.0000
  O   O2        1.0  0.8829795930668549  0.4116138674757899  0.37101656527805216  1.0000
  O   O3        1.0  0.8829382212775195  0.3978862767087752  0.7486249629750221  1.0000
  O   O4        1.0  0.8829204590519673  0.5935711442460154  0.5528589286323293  1.0000
  O   O5        1.0  0.8829973038712099  0.21592901015932742  0.5667825026750599  1.0000
  O   O6        1.0  0.7685241257016475  0.5956873436984125  0.5538113563385167  1.0000
  O   O7        1.0  0.7685418876183291  0.4000040365722428  0.7495773209783243  1.0000
  O   O8        1.0  0.7685832596543422  0.4137315817278262  0.3719673619525763  1.0000
  O   O9        1.0  0.768600970445794  0.21804671514376972  0.5677333967165077  1.0000
