data_image0
_chemical_formula_structural       NC10NC5H10C12ClH9C12NCOH11Zn2C4O8
_chemical_formula_sum              "N3 C44 H30 Cl1 O9 Zn2"
_cell_length_a       19.4436361288709
_cell_length_b       10.299768534541528
_cell_length_c       10.299148425239203
_cell_angle_alpha    85.5385229165027
_cell_angle_beta     89.68967150439464
_cell_angle_gamma    89.43641405984484

_space_group_name_H-M_alt    "P 1"
_space_group_IT_number       1

loop_
  _space_group_symop_operation_xyz
  'x, y, z'

loop_
  _atom_site_type_symbol
  _atom_site_label
  _atom_site_symmetry_multiplicity
  _atom_site_fract_x
  _atom_site_fract_y
  _atom_site_fract_z
  _atom_site_occupancy
  N   N1        1.0  0.6480780481248775  0.4098861809752281  0.5620530980526832  1.0000
  C   C1        1.0  0.5892426701369792  0.4197793782903436  0.576438616610154  1.0000
  C   C2        1.0  0.5159140772621476  0.4321174897629778  0.5944328630327078  1.0000
  C   C3        1.0  0.4737321999388895  0.4001772947171123  0.4997505345379478  1.0000
  C   C4        1.0  0.3978288505133565  0.4106122433288124  0.5050795060362718  1.0000
  C   C5        1.0  0.3580770935581059  0.3858012394464967  0.6121587661997554  1.0000
  C   C6        1.0  0.2819582106830764  0.38972548054625444  0.5991986044266404  1.0000
  C   C7        1.0  0.24139749613193323  0.4473301712513533  0.6929790325833691  1.0000
  C   C8        1.0  0.1697355278741432  0.45097411840902235  0.682434516479606  1.0000
  C   C9        1.0  0.137639430366163  0.3966172002318915  0.5783961014437644  1.0000
  C   C10       1.0  0.0638482397717481  0.4003224817389197  0.5676962946431141  1.0000
  N   N2        1.0  0.004525127514430502  0.40330133355323383  0.559094359362436  1.0000
  C   C11       1.0  0.1774751066477109  0.3383052037736902  0.4849989032263684  1.0000
  C   C12       1.0  0.24915351478812012  0.33460718299058745  0.49529162049654185  1.0000
  C   C13       1.0  0.3861928565180008  0.3452633653465358  0.7432612715819726  1.0000
  C   C14       1.0  0.4448598554104859  0.3883564482710693  0.7905093556850809  1.0000
  C   C15       1.0  0.4890893491136701  0.4862570767420764  0.716141029802889  1.0000
  H   H1        1.0  0.4958335376741625  0.37111431320726496  0.40943557722096013  1.0000
  H   H2        1.0  0.3731415172254506  0.4331618124487473  0.4119152628608833  1.0000
  H   H3        1.0  0.2652687181596027  0.49057230739748325  0.7738354671360279  1.0000
  H   H4        1.0  0.139392445783953  0.49624465151096575  0.7553629893832645  1.0000
  H   H5        1.0  0.1531320080181893  0.2952585231245224  0.40447698597632775  1.0000
  H   H6        1.0  0.2788305539581858  0.28709288662168087  0.4230594256552773  1.0000
  H   H7        1.0  0.3552116681200319  0.28100928498206823  0.8075099208450922  1.0000
  H   H8        1.0  0.4599963953662281  0.35423168011978357  0.8884494897642319  1.0000
  H   H9        1.0  0.45899736997041174  0.5769847340438166  0.6908915601822059  1.0000
  H   H10       1.0  0.5323736860304434  0.5118051671807782  0.7792319464728583  1.0000
  C   C16       1.0  0.8262400075244912  0.02522950560475068  0.5605721419403176  1.0000
  C   C17       1.0  0.8307884794902197  0.03476814096472536  0.4240560154382813  1.0000
  C   C18       1.0  0.8331593470112887  0.9224608515821079  0.3548890489653749  1.0000
  C   C19       1.0  0.8309198389105795  0.7994779903734951  0.4240704161147306  1.0000
  C   C20       1.0  0.8263697489428871  0.7879478558921247  0.5605864939930238  1.0000
  C   C21       1.0  0.8240558205175417  0.9013805666541506  0.6280728617377564  1.0000
  C   C22       1.0  0.8379721656629938  0.9336055835281047  0.21046636007599218  1.0000
  C   C23       1.0  0.798854023939942  0.027899394547139966  0.13632210379690535  1.0000
  C   C24       1.0  0.8034452661495072  0.03819220355177966  0.00039484135699208167  1.0000
  C   C25       1.0  0.847088460913005  0.9547152652673395  0.9369204096774602  1.0000
  C   C26       1.0  0.8861955370858166  0.8607345338970264  0.009553432691051578  1.0000
  C   C27       1.0  0.8817264336351949  0.8500472112035207  0.14549432559271946  1.0000
  Cl  Cl1       1.0  0.8527722219044621  0.9678765847311421  0.766376433966526  1.0000
  H   H11       1.0  0.8244715261040712  0.34904921956606816  0.6125885458987164  1.0000
  H   H12       1.0  0.8334473572705533  0.12975340167280258  0.37129770600962764  1.0000
  H   H13       1.0  0.8317838324704446  0.7126503426020601  0.37111343509682215  1.0000
  H   H14       1.0  0.8205461872139284  0.8932537727157789  0.7333887748929224  1.0000
  H   H15       1.0  0.8246633359394797  0.45610008112786554  0.6126101842731921  1.0000
  H   H16       1.0  0.7640722868530727  0.0924983454619388  0.18335751221260344  1.0000
  H   H17       1.0  0.7729155672059325  0.11089353545347436  0.9445326106484142  1.0000
  H   H18       1.0  0.9202104620296165  0.7961038388371428  0.9608347943110354  1.0000
  H   H19       1.0  0.913129104431546  0.7776236852204632  0.19985490159996044  1.0000
  C   C28       1.0  0.8263566330797176  0.40674358439958147  0.17918270134974046  1.0000
  C   C29       1.0  0.8961449341644059  0.4410129182587814  0.17463471336529857  1.0000
  C   C30       1.0  0.9314197766506075  0.45817600506981426  0.05519755399203974  1.0000
  C   C31       1.0  0.8959998840698924  0.4406754505928365  0.9393787554602779  1.0000
  C   C32       1.0  0.8262531076808418  0.4064338230303344  0.9419759431922556  1.0000
  C   C33       1.0  0.7918406647130306  0.38965966929060025  0.062380337609163394  1.0000
  C   C34       1.0  0.005205860321256139  0.4944053509810442  0.05147933520242742  1.0000
  C   C35       1.0  0.05141260092194533  0.436181343556171  0.9674965905841932  1.0000
  C   C36       1.0  0.12081201250217655  0.4704123113828045  0.964147144554258  1.0000
  C   C37       1.0  0.14562936372779633  0.5622259417691806  0.04545200615658551  1.0000
  C   C38       1.0  0.09935467982229707  0.6222974024906758  0.12786695553660743  1.0000
  C   C39       1.0  0.029924204082725447  0.5881736760805809  0.1313135028213397  1.0000
  N   N3        1.0  0.2170647446135101  0.5971129059788802  0.038324391823464365  1.0000
  C   C40       1.0  0.2566329601210702  0.6330546302150057  0.14672679794215826  1.0000
  O   O1        1.0  0.23335859863813102  0.6193221793905099  0.26127987555672116  1.0000
  H   H20       1.0  0.6947439506356922  0.3412960088679362  0.3951187520107431  1.0000
  H   H21       1.0  0.9234351869949814  0.45270407226118947  0.2643348422258953  1.0000
  H   H22       1.0  0.9226882674289182  0.4555739573618023  0.8469246431541402  1.0000
  H   H23       1.0  0.7380440364617783  0.3632446958697626  0.0650987022532028  1.0000
  H   H24       1.0  0.7994286353936326  0.39322723921145  0.6155017360711952  1.0000
  H   H25       1.0  0.034059618096385025  0.3629928353959002  0.905466293256993  1.0000
  H   H26       1.0  0.15555661890228234  0.42423294407211243  0.8989029095627918  1.0000
  H   H27       1.0  0.11631772957386022  0.6976576313944205  0.18749392477703042  1.0000
  H   H28       1.0  0.9952612082047353  0.637017763827477  0.1946645404427334  1.0000
  H   H29       1.0  0.24351596267486686  0.5876850255218662  0.9509215778656412  1.0000
  H   H30       1.0  0.30828231458418753  0.6691399030953642  0.13047496217000631  1.0000
  Zn  Zn1       1.0  0.7509409752129594  0.40798246187249787  0.561206782598781  1.0000
  Zn  Zn2       1.0  0.9016621886876005  0.40519444076649935  0.5599513565724277  1.0000
  C   C41       1.0  0.826270267788888  0.4013187866920731  0.7977916320051262  1.0000
  C   C42       1.0  0.8263345422440541  0.41185972404932913  0.32336662096351776  1.0000
  C   C43       1.0  0.8263423814502308  0.6437800548118162  0.5554082996782639  1.0000
  C   C44       1.0  0.8262623768773031  0.1693968965695818  0.5657500229329795  1.0000
  O   O2        1.0  0.8835250424175232  0.41251304210126505  0.3712796337810298  1.0000
  O   O3        1.0  0.88347368107528  0.39854844557256786  0.7489254059904873  1.0000
  O   O4        1.0  0.8835311425302925  0.5943389996349653  0.553199156682312  1.0000
  O   O5        1.0  0.8834675295463661  0.216722498319883  0.5670057861360249  1.0000
  O   O6        1.0  0.7691355829204422  0.5964544052719454  0.5541523534567672  1.0000
  O   O7        1.0  0.769078121737086  0.4006654115223842  0.7498785335439269  1.0000
  O   O8        1.0  0.769129483329285  0.4146299634289474  0.3722311998190373  1.0000
  O   O9        1.0  0.7690719704405206  0.2188394103193816  0.5679574495487962  1.0000
