data_image0
_chemical_formula_structural       NC12NC2H8C13OH12C12NCOCH13Zn2C4O8
_chemical_formula_sum              "N3 C45 H33 O10 Zn2"
_cell_length_a       19.240039667572717
_cell_length_b       10.299150109392551
_cell_length_c       10.299158637457994
_cell_angle_alpha    85.56061603079257
_cell_angle_beta     89.9815795743678
_cell_angle_gamma    89.97992514300192

_space_group_name_H-M_alt    "P 1"
_space_group_IT_number       1

loop_
  _space_group_symop_operation_xyz
  'x, y, z'

loop_
  _atom_site_type_symbol
  _atom_site_label
  _atom_site_symmetry_multiplicity
  _atom_site_fract_x
  _atom_site_fract_y
  _atom_site_fract_z
  _atom_site_occupancy
  N   N1        1.0  0.65445724749182  0.4208822356357993  0.5669743460457966  1.0000
  C   C1        1.0  0.5943088786728979  0.42088231959486166  0.566974264080746  1.0000
  C   C2        1.0  0.5194908415333808  0.42088243684150783  0.5669741267365731  1.0000
  C   C3        1.0  0.48301141236293915  0.35644843074160915  0.6704080898947573  1.0000
  C   C4        1.0  0.41034067015505904  0.35633757112190834  0.6704946689427771  1.0000
  C   C5        1.0  0.37315860661789  0.42088252933385295  0.5669738990225437  1.0000
  C   C6        1.0  0.41035222139938077  0.4854276746155599  0.46345332358442803  1.0000
  C   C7        1.0  0.4830229157782925  0.48531657952076834  0.4635400252104991  1.0000
  C   C8        1.0  0.29595351620943927  0.42088245063281793  0.5669738036314438  1.0000
  C   C9        1.0  0.2587797365232906  0.3076273802427145  0.6088814410609973  1.0000
  C   C10       1.0  0.1861090438166074  0.30773425684054145  0.6087900802604354  1.0000
  C   C11       1.0  0.1496212292999774  0.42088232147108506  0.5669738645839535  1.0000
  C   C12       1.0  0.0748031921235438  0.42088220780665586  0.5669741132839183  1.0000
  N   N2        1.0  0.0146548752432181  0.4208821670531815  0.5669743217185352  1.0000
  C   C13       1.0  0.1860809256348472  0.5340304619166769  0.525157595991756  1.0000
  C   C14       1.0  0.2587516175243963  0.5341375185925972  0.5250660725369567  1.0000
  H   H1        1.0  0.5107217368051877  0.30656245996070575  0.7511662539622905  1.0000
  H   H2        1.0  0.38324248017557133  0.30725014122404315  0.7523680942066546  1.0000
  H   H3        1.0  0.38326388059442135  0.534515131550126  0.38157984746289264  1.0000
  H   H4        1.0  0.5107423627704456  0.5352024501281709  0.38278213697348207  1.0000
  H   H5        1.0  0.2858843631757395  0.21847585116577162  0.6400780760669114  1.0000
  H   H6        1.0  0.1584052068685462  0.21948234264479138  0.6410194030207577  1.0000
  H   H7        1.0  0.1583549391372146  0.6222823515787324  0.49292828778991615  1.0000
  H   H8        1.0  0.2858334696820186  0.6232891268367202  0.49386939273356156  1.0000
  C   C15       1.0  0.8346248804759481  0.03948261845051104  0.5671184440070722  1.0000
  C   C16       1.0  0.833321254772578  0.02772630979362556  0.7039301442402277  1.0000
  C   C17       1.0  0.8325998591277998  0.904630919523457  0.7730328839325842  1.0000
  C   C18       1.0  0.8331873147483342  0.7924708379020377  0.7035667466973812  1.0000
  C   C19       1.0  0.8344939162608347  0.8022717706035798  0.5668414460480313  1.0000
  C   C20       1.0  0.835206975002015  0.9262383555439787  0.4994163067717807  1.0000
  C   C21       1.0  0.8312147264347112  0.8931757968096674  0.9176740274502249  1.0000
  C   C22       1.0  0.7884658336907283  0.8003193627680756  0.9856959282475253  1.0000
  C   C23       1.0  0.7871393987828281  0.7896215130472135  0.12180309974609338  1.0000
  C   C24       1.0  0.828993738014498  0.8706223201855435  0.19234888560885044  1.0000
  C   C25       1.0  0.8710775754354368  0.9644326137433383  0.12496956108613155  1.0000
  C   C26       1.0  0.8724201438259128  0.9753062603926969  0.9888621008694889  1.0000
  C   C27       1.0  0.8261070299155524  0.8614809837583915  0.33843619390160007  1.0000
  O   O1        1.0  0.774152854137885  0.9446704799783618  0.37867714498991556  1.0000
  H   H9        1.0  0.836633991953503  0.2689660379742671  0.30887994873160407  1.0000
  H   H10       1.0  0.8319004284454671  0.11451690743484333  0.7569390981266548  1.0000
  H   H11       1.0  0.8335748262721303  0.6973653995677154  0.7564006363778757  1.0000
  H   H12       1.0  0.8362128291715135  0.9345143167719703  0.39395599123614256  1.0000
  H   H13       1.0  0.8349497009906378  0.4785660850661467  0.5142521002055311  1.0000
  H   H14       1.0  0.7552362877705238  0.7372939724840754  0.9335868703701751  1.0000
  H   H15       1.0  0.7533212800972039  0.7183080941471126  0.17217902460455392  1.0000
  H   H16       1.0  0.9030267648695862  0.029011214319864198  0.17782483022943918  1.0000
  H   H17       1.0  0.9062614115676162  0.04706537168310598  0.9392928249950578  1.0000
  H   H18       1.0  0.8772240940333239  0.8893230763927779  0.3786064762406689  1.0000
  H   H19       1.0  0.8148056968054429  0.7594718450571607  0.3762490461611857  1.0000
  H   H20       1.0  0.7743937576864828  0.9350243022674657  0.47530451149653496  1.0000
  C   C28       1.0  0.8346245830889009  0.42073923924012213  0.18560689158913646  1.0000
  C   C29       1.0  0.8362159627903901  0.5574534940795552  0.17424369690307118  1.0000
  C   C30       1.0  0.8369682408692048  0.6269093813682609  0.05132471688747575  1.0000
  C   C31       1.0  0.8360828512506981  0.5578133927958089  0.9389320876371485  1.0000
  C   C32       1.0  0.8344942142832842  0.421015222318605  0.9483530066466508  1.0000
  C   C33       1.0  0.8337779009656011  0.35331928547745517  0.07207799345606225  1.0000
  C   C34       1.0  0.8386525582267456  0.7715362868631821  0.04027738983110285  1.0000
  C   C35       1.0  0.8812996761058544  0.8393756399248191  0.12282012795709463  1.0000
  C   C36       1.0  0.8828903718465395  0.9754771856274043  0.11229315329610401  1.0000
  C   C37       1.0  0.8423062495906702  0.04646826826895101  0.018117822146582085  1.0000
  C   C38       1.0  0.798831374183646  0.9789893323314345  0.9373580326414155  1.0000
  C   C39       1.0  0.7972692081203722  0.8429156983181805  0.9476240103037741  1.0000
  N   N3        1.0  0.8420167828893566  0.18652550593967554  0.0068315793717941276  1.0000
  C   C40       1.0  0.901550829475345  0.2655197402726053  0.030034447221112703  1.0000
  O   O2        1.0  0.9614834808524388  0.21610309002707018  0.03856851733426514  1.0000
  C   C41       1.0  0.8933733982247677  0.4093464576650945  0.03458477478970101  1.0000
  H   H21       1.0  0.8340342455402646  0.368151226982677  0.5174534363386303  1.0000
  H   H22       1.0  0.8359030691813094  0.6102749894123278  0.2611753687719427  1.0000
  H   H23       1.0  0.8375805392216046  0.6108312588823608  0.843941224403856  1.0000
  H   H24       1.0  0.8325528118558336  0.24786838660663535  0.08012779386034041  1.0000
  H   H25       1.0  0.8319176870868236  0.16280045311627322  0.7588422876518983  1.0000
  H   H26       1.0  0.9138378933719725  0.7871443923216805  0.1950316314204843  1.0000
  H   H27       1.0  0.914953581131828  0.02482072883423081  0.1793067444575367  1.0000
  H   H28       1.0  0.7663127960866535  0.03209565762947042  0.8657155019437983  1.0000
  H   H29       1.0  0.7629290261119294  0.7935253716694319  0.8842946783958912  1.0000
  H   H30       1.0  0.7969550200546892  0.23398432633855615  0.97186761763114  1.0000
  H   H31       1.0  0.8444984286190977  0.4310628915520107  0.08599469825859729  1.0000
  H   H32       1.0  0.8914967443670181  0.45601755240616626  0.9338490302619653  1.0000
  H   H33       1.0  0.9377076473540031  0.4501173710992661  0.0872247212983539  1.0000
  Zn  Zn1       1.0  0.7584025106507521  0.4208787510725853  0.5669818287916415  1.0000
  Zn  Zn2       1.0  0.9107096308627202  0.4208750611187537  0.5669774418347429  1.0000
  C   C42       1.0  0.8345181925085863  0.41578894091771357  0.8041795123864588  1.0000
  C   C43       1.0  0.834595611890755  0.4259665100308414  0.3297798850647091  1.0000
  C   C44       1.0  0.8345159778234564  0.6580865503227282  0.5617185585434803  1.0000
  C   C45       1.0  0.834597774860189  0.1836673402240474  0.5722409087152611  1.0000
  O   O3        1.0  0.8923856482300572  0.4277137633445005  0.37816399594217165  1.0000
  O   O4        1.0  0.8923257364954216  0.4140379070779081  0.7557916984159689  1.0000
  O   O5        1.0  0.892323168709969  0.609696291451399  0.560002762268287  1.0000
  O   O6        1.0  0.8923881640584556  0.23205538822800786  0.5739528347122544  1.0000
  O   O7        1.0  0.7767239254800725  0.6096984239660017  0.5600064359087951  1.0000
  O   O8        1.0  0.7767264930062769  0.41404159999696066  0.7557953022435686  1.0000
  O   O9        1.0  0.7767864050617895  0.4277174104390318  0.3781660383686227  1.0000
  O   O10       1.0  0.7767889208722981  0.23205902606821116  0.5739549745109704  1.0000
