data_image0
_chemical_formula_structural       NC11NC3H8C12ClH9C12ClH9Zn2C4O8
_chemical_formula_sum              "N2 C42 H26 Cl2 Zn2 O8"
_cell_length_a       17.807433833752565
_cell_length_b       10.299768534541528
_cell_length_c       10.299771906710086
_cell_angle_alpha    85.54593327708469
_cell_angle_beta     88.53397753802528
_cell_angle_gamma    90.7030232555817

_space_group_name_H-M_alt    "P 1"
_space_group_IT_number       1

loop_
  _space_group_symop_operation_xyz
  'x, y, z'

loop_
  _atom_site_type_symbol
  _atom_site_label
  _atom_site_symmetry_multiplicity
  _atom_site_fract_x
  _atom_site_fract_y
  _atom_site_fract_z
  _atom_site_occupancy
  N   N1        1.0  0.7075410875066304  0.43887460469702155  0.5347058561801192  1.0000
  C   C1        1.0  0.6567214852472406  0.4041295729515264  0.6012666505189075  1.0000
  C   C2        1.0  0.5934967741362523  0.36090961827970514  0.684059784547572  1.0000
  C   C3        1.0  0.6052237481338214  0.29732565072465067  0.8067753484629132  1.0000
  C   C4        1.0  0.5439065253656321  0.25578609562263566  0.8872846192109423  1.0000
  C   C5        1.0  0.4707079836654053  0.27751706313007474  0.8457191072580643  1.0000
  C   C6        1.0  0.4580042013237177  0.34125570931297  0.722543354866588  1.0000
  C   C7        1.0  0.3802374234635663  0.3643175617537622  0.6781972542676609  1.0000
  C   C8        1.0  0.3614383891501757  0.3474815785032066  0.5486177830224215  1.0000
  C   C9        1.0  0.2882098935341932  0.369173830599018  0.5070081990111468  1.0000
  C   C10       1.0  0.23283733972511264  0.40802081970991133  0.5941578285923819  1.0000
  C   C11       1.0  0.1574721158171507  0.43037191136022934  0.551186980906287  1.0000
  N   N2        1.0  0.0968838492259291  0.44834052856232587  0.5166415467755878  1.0000
  C   C12       1.0  0.250944799244085  0.4250675263822794  0.7232061765429405  1.0000
  C   C13       1.0  0.32412055091937764  0.40334027336676614  0.7650711863781414  1.0000
  C   C14       1.0  0.5201787366880826  0.38279069494322737  0.6420504996632215  1.0000
  H   H1        1.0  0.6616894693990605  0.2799020112094752  0.8401401054334521  1.0000
  H   H2        1.0  0.5531044238394411  0.20630780472921773  0.9820185361973464  1.0000
  H   H3        1.0  0.4240683197247714  0.2429436279178856  0.9091566538940408  1.0000
  H   H4        1.0  0.4031043222892663  0.3158591698842128  0.4799011666206239  1.0000
  H   H5        1.0  0.2747563205487503  0.3553211044089266  0.40697434394621235  1.0000
  H   H6        1.0  0.2085618061586863  0.4554670625396464  0.7914079986034421  1.0000
  H   H7        1.0  0.3370459616160454  0.4187384460480148  0.8649223282599048  1.0000
  H   H8        1.0  0.5116795914083937  0.4336312610575912  0.5475509309726017  1.0000
  C   C15       1.0  0.9021452017085925  0.06224053598360002  0.5256746767955311  1.0000
  C   C16       1.0  0.9070804230196723  0.07196546477980004  0.38897696684205596  1.0000
  C   C17       1.0  0.90965336341507  0.959755550166863  0.319715187898143  1.0000
  C   C18       1.0  0.9072239090450188  0.8366812313865608  0.3889857994447381  1.0000
  C   C19       1.0  0.9022869203953017  0.8249647306021523  0.5256835293479276  1.0000
  C   C20       1.0  0.8997757673952496  0.9383024025177449  0.5932624341281438  1.0000
  C   C21       1.0  0.914875415029427  0.9710974062176064  0.17510036009998053  1.0000
  C   C22       1.0  0.8721291339544973  0.06361962570886837  0.1026199659566005  1.0000
  C   C23       1.0  0.8771112152278449  0.07410073405958251  0.9665092592896238  1.0000
  C   C24       1.0  0.9247668706171204  0.9925804765163151  0.9011904647639564  1.0000
  C   C25       1.0  0.9675006992884074  0.9003706332683656  0.9721602183162674  1.0000
  C   C26       1.0  0.9626520322206094  0.8895005131068177  0.10827937819767541  1.0000
  Cl  Cl1       1.0  0.930933923974939  0.005974594148310253  0.7304195789647401  1.0000
  H   H9        1.0  0.9002260921577148  0.385987673443728  0.5777617687757854  1.0000
  H   H10       1.0  0.9099719238485684  0.16706329671442766  0.3361102959306459  1.0000
  H   H11       1.0  0.9081548282689504  0.7498853024811466  0.33599653879773683  1.0000
  H   H12       1.0  0.895967710490852  0.9300318604028961  0.6987184600764578  1.0000
  H   H13       1.0  0.9004356092995833  0.4930471753272982  0.5777752766494035  1.0000
  H   H14       1.0  0.8341487803365578  0.12665870481332897  0.15112554244700283  1.0000
  H   H15       1.0  0.8437504247312299  0.14541970176639452  0.9119454234226723  1.0000
  H   H16       1.0  0.0046430646748036875  0.8372650512592437  0.9220040464823152  1.0000
  H   H17       1.0  0.9969659975772585  0.8184984582840509  0.1613046865389125  1.0000
  C   C27       1.0  0.9021803199256109  0.4437081022825715  0.14431151848452806  1.0000
  C   C28       1.0  0.9703349319719875  0.5142475536178714  0.13482305121875782  1.0000
  C   C29       1.0  0.0049060430708181  0.5498831984051129  0.012883129781270597  1.0000
  C   C30       1.0  0.9704073618981711  0.51403415397585  0.899549910044104  1.0000
  C   C31       1.0  0.9022517844023141  0.4434972390391476  0.907046766195168  1.0000
  C   C32       1.0  0.8685202772274517  0.40872839785694604  0.029877877331524028  1.0000
  C   C33       1.0  0.07700843826957793  0.6245066722976991  0.0038988468994318737  1.0000
  C   C34       1.0  0.08890104857981207  0.7278001824247722  0.08315125655847266  1.0000
  C   C35       1.0  0.1567993447474827  0.7979377862770685  0.07450609748411474  1.0000
  C   C36       1.0  0.21357553076981595  0.7658475972401131  0.9868831037507682  1.0000
  C   C37       1.0  0.2024002847016062  0.6634309885702423  0.9077262231131176  1.0000
  C   C38       1.0  0.13456928916718125  0.5930947006107175  0.9159926243409098  1.0000
  Cl  Cl2       1.0  0.2987191858525553  0.8539672630272233  0.9762748297066972  1.0000
  H   H18       1.0  0.8761901901759274  0.41688586251157744  0.4753769582134517  1.0000
  H   H19       1.0  0.9972183865333231  0.5401004864611554  0.22255705441896367  1.0000
  H   H20       1.0  0.9963017613310426  0.5428045969880959  0.8052394909155125  1.0000
  H   H21       1.0  0.8159416749197238  0.35431156699552346  0.03642961176381654  1.0000
  H   H22       1.0  0.8762956830263164  0.41657385798162627  0.5824528725028473  1.0000
  H   H23       1.0  0.045354223796493676  0.75539436861108  0.15054621977213034  1.0000
  H   H24       1.0  0.16512095890183343  0.8774134790475512  0.13575522512804117  1.0000
  H   H25       1.0  0.24629034872416944  0.637992278621345  0.8399718030772596  1.0000
  H   H26       1.0  0.12749451537240497  0.513109047768453  0.8549051710534363  1.0000
  Zn  Zn1       1.0  0.8198969981268386  0.44160278915751494  0.5295003711491895  1.0000
  Zn  Zn2       1.0  0.9845279228640659  0.44560172163319134  0.521857617659893  1.0000
  C   C39       1.0  0.9022356458963651  0.438363376445732  0.7628734630409792  1.0000
  C   C40       1.0  0.9021910731755101  0.44884281658977865  0.2884845697946046  1.0000
  C   C41       1.0  0.9022557743892  0.6807949943239966  0.5205069187874065  1.0000
  C   C42       1.0  0.902170888222239  0.20640963703261628  0.5308511858763032  1.0000
  O   O1        1.0  0.9646712589682447  0.4520779819367684  0.3339699776666101  1.0000
  O   O2        1.0  0.9647065224618306  0.4381623287042822  0.7115870082556921  1.0000
  O   O3        1.0  0.9647219343867411  0.6339289052762469  0.5158743481023207  1.0000
  O   O4        1.0  0.9646557908585528  0.256311413317341  0.5296825430537098  1.0000
  O   O5        1.0  0.8397690739518962  0.6308930961101415  0.5216754483566384  1.0000
  O   O6        1.0  0.8397536623069665  0.4351280798538506  0.7173880392831491  1.0000
  O   O7        1.0  0.8397183987086223  0.44904368826352115  0.3397694472958852  1.0000
  O   O8        1.0  0.8397029306032566  0.2532771103283329  0.5354821100505223  1.0000
