data_image0
_chemical_formula_structural       NC10NC3NCH9C16H10C12NCOCH13Zn2C4O8
_chemical_formula_sum              "N4 C48 H32 O9 Zn2"
_cell_length_a       19.437513618241372
_cell_length_b       10.29914801576943
_cell_length_c       10.299158637457994
_cell_angle_alpha    85.55741753884429
_cell_angle_beta     90.32911859646087
_cell_angle_gamma    89.53623586623313

_space_group_name_H-M_alt    "P 1"
_space_group_IT_number       1

loop_
  _space_group_symop_operation_xyz
  'x, y, z'

loop_
  _atom_site_type_symbol
  _atom_site_label
  _atom_site_symmetry_multiplicity
  _atom_site_fract_x
  _atom_site_fract_y
  _atom_site_fract_z
  _atom_site_occupancy
  N   N1        1.0  0.6482668402843703  0.41008561749187367  0.575152468312851  1.0000
  C   C1        1.0  0.5893360910975736  0.42709603894360604  0.5721708468968763  1.0000
  C   C2        1.0  0.5158988475881849  0.4483490103001264  0.5684698275437352  1.0000
  C   C3        1.0  0.47412482304604564  0.34714803768551916  0.5568436374325245  1.0000
  C   C4        1.0  0.39823709230416  0.3572114134077906  0.5496189202438366  1.0000
  C   C5        1.0  0.35866489942878443  0.4380853980587558  0.6153355093168704  1.0000
  C   C6        1.0  0.2824826320921471  0.42947400626344523  0.6068941534279353  1.0000
  C   C7        1.0  0.2493304812538899  0.308121672636428  0.6115773920282725  1.0000
  C   C8        1.0  0.17759587708676203  0.30174733304478085  0.6044113583282098  1.0000
  C   C9        1.0  0.1380426907841806  0.4162527129016711  0.5929244762081505  1.0000
  C   C10       1.0  0.0641935905030814  0.4095401189965757  0.5855904605429756  1.0000
  N   N2        1.0  0.004824011925610599  0.40414378374017335  0.579694370164404  1.0000
  C   C11       1.0  0.1704781124853565  0.5372946688003661  0.5889866225103824  1.0000
  C   C12       1.0  0.24219714684107954  0.5439230364661498  0.5962145948694155  1.0000
  C   C13       1.0  0.3873497497739651  0.530403042376564  0.7052260006439721  1.0000
  N   N3        1.0  0.44434574386942105  0.5936144031372252  0.684800876495193  1.0000
  C   C14       1.0  0.48819881241126684  0.5843203580433027  0.5716953238897213  1.0000
  H   H1        1.0  0.4964975658570794  0.2520813597774827  0.5447535104892498  1.0000
  H   H2        1.0  0.3735206026245502  0.2876775029477956  0.49132306181359264  1.0000
  H   H3        1.0  0.2787674632066436  0.2182063598570163  0.6226278389736555  1.0000
  H   H4        1.0  0.1529892376706011  0.20751526493718808  0.6083294802213328  1.0000
  H   H5        1.0  0.1403554834332806  0.6265556813173319  0.580248559257367  1.0000
  H   H6        1.0  0.2663223215951372  0.6385679300764577  0.5922808776089588  1.0000
  H   H7        1.0  0.3573391604529647  0.5508140359711808  0.7895867314295886  1.0000
  H   H8        1.0  0.5309601386504835  0.6546395882818861  0.5774357074939411  1.0000
  H   H9        1.0  0.4585463329427555  0.6124054887285189  0.48103970430624154  1.0000
  C   C15       1.0  0.8264997037691415  0.025714120029627807  0.5775884062073551  1.0000
  C   C16       1.0  0.8108134174647219  0.03552731366186679  0.4439133933353663  1.0000
  C   C17       1.0  0.8029107233638647  0.9233721496183107  0.37597336335429676  1.0000
  C   C18       1.0  0.8109053272849441  0.8002738243955101  0.4435099701219123  1.0000
  C   C19       1.0  0.8265977318526677  0.7885051165126064  0.5772698145969184  1.0000
  C   C20       1.0  0.834299528600958  0.9017427424891947  0.6434854440385951  1.0000
  C   C21       1.0  0.7863166940491445  0.9347989278347112  0.23456132314681377  1.0000
  C   C22       1.0  0.818881872340854  0.8532411224559328  0.14975768040559578  1.0000
  C   C23       1.0  0.8032401080181306  0.8641211896525962  0.016665812161108295  1.0000
  C   C24       1.0  0.7548726276839385  0.956461411056233  0.9665712699961198  1.0000
  C   C25       1.0  0.7221822158588512  0.038001166526609786  0.05008936489306448  1.0000
  C   C26       1.0  0.737774923259909  0.027363189926156162  0.1832015550040078  1.0000
  C   C27       1.0  0.7387948082135056  0.9675383185778399  0.8295410658946878  1.0000
  C   C28       1.0  0.7253298076440502  0.9768151225807911  0.7147802515715846  1.0000
  C   C29       1.0  0.7095624510182529  0.9876781351897576  0.5803965085123872  1.0000
  C   C30       1.0  0.6960997103906055  0.9969535308735131  0.4656542309092804  1.0000
  H   H10       1.0  0.8324979365692168  0.3494147398583596  0.6290191855702123  1.0000
  H   H11       1.0  0.8056320402740786  0.1306506949311621  0.3919368371221945  1.0000
  H   H12       1.0  0.8039480410486629  0.713478391435449  0.3920053778673265  1.0000
  H   H13       1.0  0.8463967513981399  0.8934577174694737  0.7465932427382975  1.0000
  H   H14       1.0  0.8557902318511302  0.558992897297394  0.8299073207198318  1.0000
  H   H15       1.0  0.8570946833891867  0.7822122763682343  0.18609446755949444  1.0000
  H   H16       1.0  0.8289909781180714  0.8007465306804231  0.9528183969475132  1.0000
  H   H17       1.0  0.6845168625616359  0.10958475866553274  0.012389646283064604  1.0000
  H   H18       1.0  0.7112221665682684  0.0903611219762519  0.24623596087904853  1.0000
  H   H19       1.0  0.684278340338084  0.005098110915594312  0.36490083671690066  1.0000
  C   C31       1.0  0.8266132064187973  0.40697057036938245  0.1960568838574246  1.0000
  C   C32       1.0  0.8282293085730364  0.543658510836684  0.18470659640499765  1.0000
  C   C33       1.0  0.8289947145916693  0.6131019565570606  0.06179346505384409  1.0000
  C   C34       1.0  0.8280976497957386  0.5440206052030658  0.9493932897900383  1.0000
  C   C35       1.0  0.8264842376080928  0.4072487038922896  0.9588013405456661  1.0000
  C   C36       1.0  0.825754958167592  0.3395646145332152  0.08252084002921745  1.0000
  C   C37       1.0  0.8307051768524271  0.7577010109355449  0.05075980276960412  1.0000
  C   C38       1.0  0.8729415147165627  0.8248368234709611  0.13383675708077925  1.0000
  C   C39       1.0  0.8745567569419884  0.9609120663658819  0.1233227131160739  1.0000
  C   C40       1.0  0.8344040022309939  0.032572594384665976  0.028631909144076984  1.0000
  C   C41       1.0  0.7913483804486914  0.9658108535436749  0.9473274467751147  1.0000
  C   C42       1.0  0.789761387886152  0.8297630516980388  0.9575808520311657  1.0000
  N   N4        1.0  0.8341592652510821  0.17263454269677148  0.01733468155657447  1.0000
  C   C43       1.0  0.8931151874240489  0.25064666361985743  0.041284121127083795  1.0000
  O   O1        1.0  0.9524273578127487  0.20024138361821775  0.050576514064053946  1.0000
  C   C44       1.0  0.8850633335907291  0.3946082102395949  0.04572380132810672  1.0000
  H   H20       1.0  0.8260131389230534  0.35439232054168257  0.5278987386092238  1.0000
  H   H21       1.0  0.8279353434354066  0.5964851433857619  0.27163155653787374  1.0000
  H   H22       1.0  0.829596025548587  0.5970137409570995  0.854418535492409  1.0000
  H   H23       1.0  0.8245107760058219  0.23413397330443142  0.09056071478414651  1.0000
  H   H24       1.0  0.8238566793790861  0.14907655599524205  0.7692716547771097  1.0000
  H   H25       1.0  0.9051352827199874  0.7720688475764175  0.20646129418858084  1.0000
  H   H26       1.0  0.9063106357306772  0.00972667032202379  0.1907380287854865  1.0000
  H   H27       1.0  0.759174314316147  0.019453582761762345  0.8752720842505224  1.0000
  H   H28       1.0  0.7557535354643788  0.7809392253952807  0.8938210860407221  1.0000
  H   H29       1.0  0.7895671009840751  0.22083668271441015  0.9818000174990194  1.0000
  H   H30       1.0  0.8366888185579759  0.4171308784647776  0.09651628706337667  1.0000
  H   H31       1.0  0.8832195771524051  0.4413102409053353  0.9449619485535043  1.0000
  H   H32       1.0  0.928961671742422  0.4346477645827118  0.09892065585942023  1.0000
  Zn  Zn1       1.0  0.7511615417516954  0.4083674458548663  0.576470673553581  1.0000
  Zn  Zn2       1.0  0.9019293134925191  0.4058512888351471  0.5783868393454934  1.0000
  C   C45       1.0  0.8265064135543586  0.4020220293489878  0.8146284223418039  1.0000
  C   C46       1.0  0.8265860882582976  0.41219831666642603  0.3402292382647849  1.0000
  C   C47       1.0  0.8265765419603212  0.6443195638449593  0.5721547515908227  1.0000
  C   C48       1.0  0.8265159081935757  0.16989922262249757  0.5827029782529358  1.0000
  O   O2        1.0  0.8837925700704721  0.4129922613932375  0.38934197473324916  1.0000
  O   O3        1.0  0.8837291819019862  0.3993173997241739  0.7669696379323401  1.0000
  O   O4        1.0  0.883785039954927  0.594975736464679  0.571170422892574  1.0000
  O   O5        1.0  0.8837366605883624  0.2173339347668124  0.5851410917397666  1.0000
  O   O6        1.0  0.7693541432062121  0.5968848007832532  0.569716420498583  1.0000
  O   O7        1.0  0.769298285362391  0.4012280244507562  0.765515565640454  1.0000
  O   O8        1.0  0.7693616738348328  0.41490284029002655  0.3878863410466604  1.0000
  O   O9        1.0  0.7693057643322522  0.21924450440957322  0.5836855554257014  1.0000
