data_image0
_chemical_formula_structural       NC8NC6H8C6SCH6C7OH4Zn2C4O8
_chemical_formula_sum              "N2 C32 H18 S1 O9 Zn2"
_cell_length_a       17.457602349358154
_cell_length_b       10.302809429070853
_cell_length_c       9.274081674992354
_cell_angle_alpha    86.07103033797786
_cell_angle_beta     92.53340075860572
_cell_angle_gamma    91.68806441137123

_space_group_name_H-M_alt    "P 1"
_space_group_IT_number       1

loop_
  _space_group_symop_operation_xyz
  'x, y, z'

loop_
  _atom_site_type_symbol
  _atom_site_label
  _atom_site_symmetry_multiplicity
  _atom_site_fract_x
  _atom_site_fract_y
  _atom_site_fract_z
  _atom_site_occupancy
  N   N1        1.0  0.7270867280439399  0.4403363493761267  0.4760215869250171  1.0000
  C   C1        1.0  0.6660448290151751  0.39433220337200264  0.4642427762454267  1.0000
  C   C2        1.0  0.5901060912031998  0.3371088420536845  0.4496005231652019  1.0000
  C   C3        1.0  0.5313232469830772  0.3779152439036615  0.5327042126721933  1.0000
  C   C4        1.0  0.45682050630737586  0.32281488049567786  0.5187437171342417  1.0000
  C   C5        1.0  0.39443175740990394  0.3659025233981114  0.6067536761695136  1.0000
  C   C6        1.0  0.320074361702117  0.38387610200593736  0.54488054721836  1.0000
  C   C7        1.0  0.2612911482402115  0.42449958208629646  0.6281040181535289  1.0000
  C   C8        1.0  0.18550311675814815  0.4430593941304113  0.5637726956275415  1.0000
  N   N2        1.0  0.1245824554415694  0.45797510661211027  0.51205047991427  1.0000
  C   C9        1.0  0.27637144178916523  0.44739701030658624  0.7737648503316021  1.0000
  C   C10       1.0  0.3499428179017127  0.4298156979838841  0.8360680437765169  1.0000
  C   C11       1.0  0.4087128728637242  0.3893762314245465  0.7533524434566354  1.0000
  C   C12       1.0  0.44239411925479755  0.22621833644981687  0.4200896174744369  1.0000
  C   C13       1.0  0.5011638876450556  0.18569403707186466  0.33742975682398124  1.0000
  C   C14       1.0  0.574879996049383  0.24091156515305664  0.3520004563010975  1.0000
  H   H1        1.0  0.5434411287478673  0.4536707931063395  0.6066351779817611  1.0000
  H   H2        1.0  0.30807564678633653  0.3680155630366644  0.4316779602145042  1.0000
  H   H3        1.0  0.23131077109585274  0.4787863088850317  0.8390469143900283  1.0000
  H   H4        1.0  0.3614290885992721  0.44723014235542363  0.948856474568234  1.0000
  H   H5        1.0  0.46504199636182103  0.37479346405825265  0.804510458605568  1.0000
  H   H6        1.0  0.3859456208018433  0.1808033596922973  0.40827073277793013  1.0000
  H   H7        1.0  0.48956388287901254  0.11104409382269664  0.26216917851884025  1.0000
  H   H8        1.0  0.6199389758738059  0.20865732043260563  0.2872855176604996  1.0000
  C   C15       1.0  0.9258382551210602  0.06790250723250346  0.49404262774457247  1.0000
  C   C16       1.0  0.9704725042191169  0.0765274190617706  0.3712608868617635  1.0000
  C   C17       1.0  0.9924710574689477  0.9638292350844924  0.3099862860497291  1.0000
  C   C18       1.0  0.9704724077446608  0.8413762562373064  0.37126080065484557  1.0000
  C   C19       1.0  0.9258382245729816  0.8303993671851838  0.4940426174089616  1.0000
  C   C20       1.0  0.9037194479117897  0.9442992476578518  0.5548043632118838  1.0000
  S   S1        1.0  0.049638890052632334  0.9763470567617519  0.15329565582654592  1.0000
  C   C21       1.0  0.9668859469696898  0.9800164346426766  0.026843398950324292  1.0000
  H   H9        1.0  0.9882007582062431  0.1705200180169395  0.32248997535377855  1.0000
  H   H10       1.0  0.9882005892929789  0.7551696161303373  0.32248984772308786  1.0000
  H   H11       1.0  0.8692785963654655  0.9367397685809401  0.6494954464295024  1.0000
  H   H12       1.0  0.9316294802768754  0.8891513181006513  0.0428678640535063  1.0000
  H   H13       1.0  0.931630200174486  0.06538630749859962  0.042867405348151914  1.0000
  H   H14       1.0  0.9870389328405424  0.9879361002973414  0.914742056998704  1.0000
  C   C22       1.0  0.9271326642312043  0.44580500737202766  0.070890194390971  1.0000
  C   C23       1.0  0.9894244650705035  0.5050721570193382  0.14506237612543593  1.0000
  C   C24       1.0  0.04737276609427199  0.5737244326290398  0.06983183451139685  1.0000
  C   C25       1.0  0.043013708462212426  0.5834609551897949  0.9183140283881444  1.0000
  C   C26       1.0  0.9823291507335095  0.5235248636299854  0.8430846994518543  1.0000
  C   C27       1.0  0.9245438152267984  0.4524968424679511  0.9171949556058059  1.0000
  C   C28       1.0  0.11145297757132644  0.6356554181674463  0.15108496718115938  1.0000
  O   O1        1.0  0.1642376976065035  0.6984854208553615  0.08652962681127674  1.0000
  H   H15       1.0  0.7454041524531668  0.3534039690406905  0.16578717535416154  1.0000
  H   H16       1.0  0.08692955622761023  0.6364000849550748  0.8576866801004406  1.0000
  H   H17       1.0  0.8034032237638401  0.38500543393023906  0.631130462367874  1.0000
  H   H18       1.0  0.11368900890963189  0.6275009457732124  0.26819483019962176  1.0000
  Zn  Zn1       1.0  0.8417953831720392  0.44542309783606604  0.48642706718975026  1.0000
  Zn  Zn2       1.0  0.009873749975550355  0.4528778068410806  0.5016567970973449  1.0000
  C   C29       1.0  0.9250314475028546  0.446059763028815  0.7572251135020156  1.0000
  C   C30       1.0  0.9266395206225567  0.45224286229515176  0.23085905852503366  1.0000
  C   C31       1.0  0.925851843954572  0.6862256389556307  0.48830004563294493  1.0000
  C   C32       1.0  0.9258190665825059  0.21207542460200268  0.4997841980219335  1.0000
  O   O2        1.0  0.9902588813769962  0.45722682440926277  0.29032567379204144  1.0000
  O   O3        1.0  0.9889796793525437  0.44673276985358196  0.7093170960376896  1.0000
  O   O4        1.0  0.9896412954287478  0.6406697256874514  0.4921581231308878  1.0000
  O   O5        1.0  0.9895972082775354  0.263289874464703  0.5074845334587492  1.0000
  O   O6        1.0  0.8620718675131793  0.6350110276698712  0.48059932562360697  1.0000
  O   O7        1.0  0.8614102516684345  0.44107563105976166  0.6977582216978395  1.0000
  O   O8        1.0  0.8626894590435432  0.4515696266765681  0.27876506698617143  1.0000
  O   O9        1.0  0.8620277856104647  0.25763266830012643  0.4959240346882339  1.0000
