data_image0
_chemical_formula_structural       NC11NC3H8C13OH12C15H11Zn2C4O8
_chemical_formula_sum              "N2 C46 H31 O9 Zn2"
_cell_length_a       17.807433833752565
_cell_length_b       10.299150109392551
_cell_length_c       10.299157797200024
_cell_angle_alpha    85.5240492146119
_cell_angle_beta     88.54730741847368
_cell_angle_gamma    90.66566965777596

_space_group_name_H-M_alt    "P 1"
_space_group_IT_number       1

loop_
  _space_group_symop_operation_xyz
  'x, y, z'

loop_
  _atom_site_type_symbol
  _atom_site_label
  _atom_site_symmetry_multiplicity
  _atom_site_fract_x
  _atom_site_fract_y
  _atom_site_fract_z
  _atom_site_occupancy
  N   N1        1.0  0.7068092015856824  0.43898593767640187  0.5341005583450749  1.0000
  C   C1        1.0  0.6560114700576136  0.40423832505895674  0.6006776348451706  1.0000
  C   C2        1.0  0.5928139639283748  0.3610151599848621  0.6834910223793842  1.0000
  C   C3        1.0  0.6045810839968508  0.29742647252492294  0.8062364314387829  1.0000
  C   C4        1.0  0.5432901343793117  0.2558838350667971  0.8867652181969231  1.0000
  C   C5        1.0  0.47007792248908065  0.2776164169792672  0.8451895261502903  1.0000
  C   C6        1.0  0.4573338746490943  0.34135979399146227  0.7219838473739238  1.0000
  C   C7        1.0  0.3795525577517318  0.364423358899087  0.6776269306606648  1.0000
  C   C8        1.0  0.3607423328669336  0.3475855669387111  0.5480467024692182  1.0000
  C   C9        1.0  0.2875001755118306  0.3692794301559772  0.506426950189504  1.0000
  C   C10       1.0  0.23212492166856136  0.4081298620523251  0.5935670078745572  1.0000
  C   C11       1.0  0.15674560795968634  0.4304826134210282  0.5505856778792353  1.0000
  N   N2        1.0  0.09614601420653282  0.44845256491318103  0.5160318167471889  1.0000
  C   C12       1.0  0.2502434219581054  0.42517839264759205  0.722616007213291  1.0000
  C   C13       1.0  0.3234328827661124  0.40344952656041383  0.7644912117837712  1.0000
  C   C14       1.0  0.5194821407706749  0.3828978616648331  0.6414714787111524  1.0000
  H   H1        1.0  0.6610577709802345  0.28000153872946565  0.8396093527220233  1.0000
  H   H2        1.0  0.5525191707313986  0.20640186873345653  0.9815223188816667  1.0000
  H   H3        1.0  0.4234596450264088  0.24304040400360383  0.9086431252245135  1.0000
  H   H4        1.0  0.40241076350781857  0.31596036348207623  0.479337996725747  1.0000
  H   H5        1.0  0.2740382814066032  0.3554252384604568  0.406392824124924  1.0000
  H   H6        1.0  0.20785831641370803  0.4555806229524779  0.790810339004441  1.0000
  H   H7        1.0  0.33636601578032216  0.4188492891237449  0.8643420488615042  1.0000
  H   H8        1.0  0.5109513830177617  0.43374221421793147  0.5469482398909269  1.0000
  C   C15       1.0  0.9015520363312024  0.06232137295141961  0.5252068439292139  1.0000
  C   C16       1.0  0.9001994797884091  0.05044456040529409  0.6620881393620217  1.0000
  C   C17       1.0  0.8994482775868158  0.9272866501250571  0.7312291885607038  1.0000
  C   C18       1.0  0.9000545541750959  0.8151857973940259  0.6617314495445705  1.0000
  C   C19       1.0  0.9014103629626349  0.8251072577308409  0.5249364070719158  1.0000
  C   C20       1.0  0.9021532469949428  0.9491350860607948  0.4574734280088817  1.0000
  C   C21       1.0  0.8980108553887653  0.9157039459096178  0.8759442563542716  1.0000
  C   C22       1.0  0.8518317827857005  0.8216811117422355  0.9461126746289619  1.0000
  C   C23       1.0  0.8504542807214532  0.8108626027781103  0.08229056388067414  1.0000
  C   C24       1.0  0.8957236875198956  0.89291895041404  0.15073896094259387  1.0000
  C   C25       1.0  0.9411841688791254  0.9878777601348365  0.08124650009394363  1.0000
  C   C26       1.0  0.9425791094678474  0.998872490227638  0.9450675128053312  1.0000
  C   C27       1.0  0.8926638135032761  0.8836096566467196  0.29697556200951647  1.0000
  O   O1        1.0  0.8365232930364527  0.9654083329501123  0.3398239456132409  1.0000
  H   H9        1.0  0.9036169782730145  0.29202038181278844  0.2668596353809647  1.0000
  H   H10       1.0  0.8986856147727922  0.13716440074602487  0.715169994384488  1.0000
  H   H11       1.0  0.9004952449990902  0.7200572386248794  0.7145475226531848  1.0000
  H   H12       1.0  0.9031968971087524  0.9575039621724716  0.3519594171730813  1.0000
  H   H13       1.0  0.9018812901400939  0.50144670188196  0.47232258272279726  1.0000
  H   H14       1.0  0.8158925129072058  0.7578152347214404  0.8956689229157343  1.0000
  H   H15       1.0  0.8139211698451801  0.7386286247596522  0.1343644665988427  1.0000
  H   H16       1.0  0.9757398127397275  0.053262726888302137  0.13250071299068222  1.0000
  H   H17       1.0  0.9791375754055529  0.07155226054869511  0.8937991226052974  1.0000
  H   H18       1.0  0.9479327271717501  0.91276987940452  0.3345828732835334  1.0000
  H   H19       1.0  0.8804638527982449  0.7812796615814499  0.33535648837597065  1.0000
  H   H20       1.0  0.8368236107382755  0.955707575523645  0.43644219461917966  1.0000
  C   C28       1.0  0.9013940775150837  0.44381847983470507  0.14368359175599688  1.0000
  C   C29       1.0  0.8231487760349281  0.42393515564959694  0.14749658080793315  1.0000
  C   C30       1.0  0.7836369748220982  0.4137486423013639  0.03228013035108246  1.0000
  C   C31       1.0  0.823372026489778  0.4237318353959054  0.9122190011294422  1.0000
  C   C32       1.0  0.901568294271111  0.44361017231656796  0.906459605840864  1.0000
  C   C33       1.0  0.9401227048207836  0.4535316554382194  0.022743419931905654  1.0000
  C   C34       1.0  0.7009141675626033  0.3927328723287004  0.037357610217731985  1.0000
  C   C35       1.0  0.6671269997225509  0.3049253525374638  0.9578501934702839  1.0000
  C   C36       1.0  0.5892813550158215  0.28524168839796493  0.962660540875557  1.0000
  C   C37       1.0  0.543836492745384  0.3523226745885044  0.04757491774479795  1.0000
  C   C38       1.0  0.5772214559070392  0.4409660297231508  0.1261239780398613  1.0000
  C   C39       1.0  0.6550663423744665  0.4606538741189599  0.12146161502622732  1.0000
  C   C40       1.0  0.4599742846901574  0.333467081176809  0.05041004073978317  1.0000
  C   C41       1.0  0.4261705301497521  0.4264200985921711  0.9545338813702203  1.0000
  C   C42       1.0  0.3983888750921403  0.5028556702781317  0.8756964989056404  1.0000
  H   H21       1.0  0.7929331538592241  0.414574920777639  0.2404397283753659  1.0000
  H   H22       1.0  0.7930476662280278  0.41775605470609856  0.822995926801886  1.0000
  H   H23       1.0  0.0004378534632010221  0.46886063679221124  0.01901675919011025  1.0000
  H   H24       1.0  0.9316482922913479  0.45121468200461806  0.5767718565337749  1.0000
  H   H25       1.0  0.7009948121771649  0.25037880514742406  0.8929264333909078  1.0000
  H   H26       1.0  0.5644214372947579  0.21747614721591793  0.900279528668556  1.0000
  H   H27       1.0  0.5429149839175951  0.4951927078730676  0.19072320895811234  1.0000
  H   H28       1.0  0.6793131248085992  0.5305119036378396  0.18222907605804095  1.0000
  H   H29       1.0  0.44499949347099327  0.23285474740751666  0.027696162304285517  1.0000
  H   H30       1.0  0.436057560982675  0.348331724111101  0.148735703260223  1.0000
  H   H31       1.0  0.374020013585674  0.569964048686401  0.806483501574547  1.0000
  Zn  Zn1       1.0  0.8191633977239999  0.4417143248593021  0.5288937959521605  1.0000
  Zn  Zn2       1.0  0.9837918076985066  0.445713554438927  0.5212491694497026  1.0000
  C   C43       1.0  0.9015346691991917  0.438475454979621  0.7622805433216944  1.0000
  C   C44       1.0  0.9014223336851839  0.44895410669963587  0.2878624654928763  1.0000
  C   C45       1.0  0.9014320925202145  0.6809258465901686  0.5198122555817852  1.0000
  C   C46       1.0  0.9015248544936293  0.2065021532841187  0.5303308256367367  1.0000
  O   O2        1.0  0.9639074413835409  0.45218969060045006  0.33334911870091594  1.0000
  O   O3        1.0  0.9639987155259544  0.4382742140988418  0.7109914219655447  1.0000
  O   O4        1.0  0.9639150416676189  0.634055950700158  0.5151966027421029  1.0000
  O   O5        1.0  0.9639910590413814  0.2564079619519877  0.5291438431501096  1.0000
  O   O6        1.0  0.8389640902015268  0.631019915982916  0.520999124853657  1.0000
  O   O7        1.0  0.8390477637507952  0.4352397398232448  0.7167938742750519  1.0000
  O   O8        1.0  0.838956489310059  0.4491551714930269  0.33915000954523356  1.0000
  O   O9        1.0  0.8390401069887958  0.2533734335283859  0.5349448313705791  1.0000
