data_image0
_chemical_formula_structural       NC8NC6H8C6ClH5C7F3H5Zn2C4O8
_chemical_formula_sum              "N2 C31 H18 Cl1 F3 Zn2 O8"
_cell_length_a       17.457602349358154
_cell_length_b       10.30297070629231
_cell_length_c       9.272291681409872
_cell_angle_alpha    86.0604796427724
_cell_angle_beta     93.27365386630078
_cell_angle_gamma    91.68807172504815

_space_group_name_H-M_alt    "P 1"
_space_group_IT_number       1

loop_
  _space_group_symop_operation_xyz
  'x, y, z'

loop_
  _atom_site_type_symbol
  _atom_site_label
  _atom_site_symmetry_multiplicity
  _atom_site_fract_x
  _atom_site_fract_y
  _atom_site_fract_z
  _atom_site_occupancy
  N   N1        1.0  0.716607075956324  0.4401036708379309  0.4747441044867616  1.0000
  C   C1        1.0  0.655484175307401  0.3940986210666137  0.462955412985677  1.0000
  C   C2        1.0  0.5794447442855906  0.3368741368309491  0.4483008770404422  1.0000
  C   C3        1.0  0.5212333728123586  0.3776913581346867  0.531474243613854  1.0000
  C   C4        1.0  0.4466346272577992  0.3225899325699826  0.5175020370450456  1.0000
  C   C5        1.0  0.3848510896632424  0.3656890356866167  0.6055857867202168  1.0000
  C   C6        1.0  0.31006821959278624  0.38365380178417274  0.5436607872263954  1.0000
  C   C7        1.0  0.2518573025503939  0.42428812069786476  0.6269540356266037  1.0000
  C   C8        1.0  0.1756268927768057  0.4428387721161315  0.562568781746895  1.0000
  N   N2        1.0  0.11435056046583655  0.4577471195775941  0.5108032053649394  1.0000
  C   C9        1.0  0.26793924689197973  0.4472052741827426  0.7727369888809441  1.0000
  C   C10       1.0  0.34193905477292214  0.42963282752595466  0.8350924134725193  1.0000
  C   C11       1.0  0.4001403057450337  0.38918258927754423  0.7523074614960381  1.0000
  C   C12       1.0  0.4315298293431691  0.2259812984956157  0.41876521625885177  1.0000
  C   C13       1.0  0.4897311770353539  0.18544623644225067  0.33603605067181275  1.0000
  C   C14       1.0  0.5635474864465906  0.24066490898085563  0.3506189727733915  1.0000
  H   H1        1.0  0.5338596530758687  0.45345591484325465  0.6054672002086716  1.0000
  H   H2        1.0  0.29729105629777014  0.3677779027280772  0.4303632921668372  1.0000
  H   H3        1.0  0.2233274962925371  0.4786030824081018  0.8380737876423463  1.0000
  H   H4        1.0  0.35420092599246117  0.44706255055034266  0.9479754052974307  1.0000
  H   H5        1.0  0.45682122049112983  0.3746071039262603  0.8035083643445902  1.0000
  H   H6        1.0  0.37500005374427264  0.18056540322068892  0.4069364172178396  1.0000
  H   H7        1.0  0.47761363066221196  0.11078708504880996  0.26071236650778884  1.0000
  H   H8        1.0  0.6081614459944862  0.20840224635169013  0.2858497747841935  1.0000
  C   C15       1.0  0.9154824968005681  0.06767814474656997  0.4927802069014027  1.0000
  C   C16       1.0  0.9948376492868745  0.068273806476842  0.5277429807698579  1.0000
  C   C17       1.0  0.034211557543617946  0.9516125132085025  0.5450904751820864  1.0000
  C   C18       1.0  0.9948376484154486  0.8331658372344554  0.5277429128882887  1.0000
  C   C19       1.0  0.9154825053060404  0.8301630875863137  0.49278029020100433  1.0000
  C   C20       1.0  0.8761917494788938  0.9480298295882518  0.47546929934022414  1.0000
  Cl  Cl1       1.0  0.13334504946190817  0.9538601527718117  0.5887672103898725  1.0000
  H   H9        1.0  0.8855907976348809  0.39475688123846187  0.47960953491363983  1.0000
  H   H10       1.0  0.026399121515303436  0.15903597913674816  0.5416484018178458  1.0000
  H   H11       1.0  0.02639909076920711  0.7438347841292753  0.5416482954507975  1.0000
  H   H12       1.0  0.8149906475702663  0.9466421096889529  0.4485049106679413  1.0000
  H   H13       1.0  0.8855907949307162  0.5017289165853559  0.4796098068609063  1.0000
  C   C21       1.0  0.91386709242732  0.44551638352436934  0.06927306116278564  1.0000
  C   C22       1.0  0.9654830819097086  0.36609874527043584  0.15417189724509606  1.0000
  C   C23       1.0  0.02126946041159261  0.29849948826095857  0.09043242287024733  1.0000
  C   C24       1.0  0.02767272501838325  0.310102217452789  0.9401205982586154  1.0000
  C   C25       1.0  0.9745275127266747  0.38515093956660656  0.8539129264485621  1.0000
  C   C26       1.0  0.9170979136202674  0.45232484758691494  0.916287345685963  1.0000
  C   C27       1.0  0.08659387086026164  0.23408900499440022  0.8708770076277356  1.0000
  F   F1        1.0  0.1508554794516377  0.21501842466805443  0.9636220556782741  1.0000
  F   F2        1.0  0.10956501877215863  0.30007846975529384  0.7448871281248679  1.0000
  F   F3        1.0  0.05497368390616721  0.11438024350907128  0.8380512854808373  1.0000
  H   H14       1.0  0.8057907255292824  0.7030688304569916  0.13956559237403998  1.0000
  H   H15       1.0  0.9637117403523636  0.3582691255277976  0.2710579960454089  1.0000
  H   H16       1.0  0.05993122838236964  0.23788606513115296  0.15915080647366286  1.0000
  H   H17       1.0  0.9767156487729612  0.3887109930938435  0.7371235080697298  1.0000
  H   H18       1.0  0.7431714899715147  0.5689798882048738  0.7871770003463552  1.0000
  Zn  Zn1       1.0  0.8313872856480777  0.44519177436514007  0.48515830907056445  1.0000
  Zn  Zn2       1.0  0.9995703815614723  0.45264846653113633  0.5004008081182887  1.0000
  C   C28       1.0  0.916485515606374  0.445865767336834  0.7561833854042002  1.0000
  C   C29       1.0  0.9144739886973335  0.4519761942217528  0.22937603978282417  1.0000
  C   C30       1.0  0.9154566451583137  0.6859908034171949  0.48703288800954736  1.0000
  C   C31       1.0  0.915502802049492  0.21184959640938847  0.4985266088651612  1.0000
  O   O1        1.0  0.9785022770349954  0.45696827758221437  0.28889251091789814  1.0000
  O   O2        1.0  0.9801043039914542  0.4465321580467416  0.7082352032058237  1.0000
  O   O3        1.0  0.9792726234265455  0.6404361353843675  0.49089419429700776  1.0000
  O   O4        1.0  0.979333899797943  0.26306430611819187  0.5062334064916836  1.0000
  O   O5        1.0  0.8516237100189417  0.6347759322348339  0.47932570548806686  1.0000
  O   O6        1.0  0.8524553902870866  0.44087351408596115  0.6966666375000954  1.0000
  O   O7        1.0  0.8508533567678316  0.4513095744446092  0.27732221129368817  1.0000
  O   O8        1.0  0.8516849799400743  0.2574055945637326  0.4946632149934014  1.0000
