data_image0
_chemical_formula_structural       NC8NC6H8C7OC3OC4H12C6SCOC6H10Zn2C4O8
_chemical_formula_sum              "N2 C45 H30 O11 S1 Zn2"
_cell_length_a       17.457602349358154
_cell_length_b       10.299371110280156
_cell_length_c       10.302041481415108
_cell_angle_alpha    85.5593769261431
_cell_angle_beta     92.8727530123399
_cell_angle_gamma    91.70033728131911

_space_group_name_H-M_alt    "P 1"
_space_group_IT_number       1

loop_
  _space_group_symop_operation_xyz
  'x, y, z'

loop_
  _atom_site_type_symbol
  _atom_site_label
  _atom_site_symmetry_multiplicity
  _atom_site_fract_x
  _atom_site_fract_y
  _atom_site_fract_z
  _atom_site_occupancy
  N   N1        1.0  0.7226738265524715  0.45331236923319435  0.6272784433898948  1.0000
  C   C1        1.0  0.661590066691716  0.40739050145067784  0.6166500155050091  1.0000
  C   C2        1.0  0.5855992868065775  0.3502694090749015  0.6034377929738957  1.0000
  C   C3        1.0  0.5270732773979866  0.39040584566979253  0.6783323510342429  1.0000
  C   C4        1.0  0.4525208443123323  0.3354028187842155  0.6657351254400369  1.0000
  C   C5        1.0  0.3904040758669322  0.37778090275418497  0.7450512611189994  1.0000
  C   C6        1.0  0.3158620210433997  0.3962685349060757  0.68930587950972  1.0000
  C   C7        1.0  0.2573359797771705  0.4362210078653795  0.7643083077426662  1.0000
  C   C8        1.0  0.18135593540031977  0.45531525627945296  0.7063481436037355  1.0000
  N   N2        1.0  0.1202808953578364  0.4706606522152421  0.6597483205665238  1.0000
  C   C9        1.0  0.2728598444098004  0.4579288173838414  0.8955646043455965  1.0000
  C   C10       1.0  0.3466172333418263  0.43983004151583516  0.9516976271111446  1.0000
  C   C11       1.0  0.4051316768294115  0.40005746711881796  0.8771528797534004  1.0000
  C   C12       1.0  0.43778302869011615  0.23958642275132447  0.5768105115102915  1.0000
  C   C13       1.0  0.49629734264512076  0.19972853079981623  0.5023159610751067  1.0000
  C   C14       1.0  0.5700650045548642  0.25484374549209976  0.5154630539165095  1.0000
  H   H1        1.0  0.5394249992603616  0.4655778165993656  0.7449731814720133  1.0000
  H   H2        1.0  0.30351884046743327  0.38133313656270773  0.5872986344000575  1.0000
  H   H3        1.0  0.2280008397829948  0.4887916150566385  0.9543977712871033  1.0000
  H   H4        1.0  0.3584469282014509  0.45632323811535125  0.053332201605123315  1.0000
  H   H5        1.0  0.46161351814863927  0.385049757078371  0.92324443439163  1.0000
  H   H6        1.0  0.3812926281771345  0.1942542392337021  0.5661461672418306  1.0000
  H   H7        1.0  0.48445962719787383  0.1256734392901362  0.43447743409857464  1.0000
  H   H8        1.0  0.614923915868099  0.22311106914235282  0.4571406169087307  1.0000
  C   C15       1.0  0.9214293072216724  0.08061303902471906  0.6433946808422351  1.0000
  C   C16       1.0  0.9125948512320937  0.08956378324540903  0.5067192974479666  1.0000
  C   C17       1.0  0.90727237014036  0.9768534994133183  0.43788139508429347  1.0000
  C   C18       1.0  0.9126329207179489  0.854297451856172  0.5070334209872678  1.0000
  C   C19       1.0  0.9215327525098711  0.843350287079021  0.6436439255616972  1.0000
  C   C20       1.0  0.9256785788279198  0.9570944703621765  0.7110553405423732  1.0000
  C   C21       1.0  0.8987439080193106  0.9862117955686006  0.29347086405486844  1.0000
  O   O1        1.0  0.9301959314450682  0.9025683487869492  0.23203107211747964  1.0000
  C   C22       1.0  0.8545261739759741  0.09037717608375394  0.2187653656824997  1.0000
  C   C23       1.0  0.8759757853264867  0.13651880680909323  0.0934036010738879  1.0000
  C   C24       1.0  0.8344807798171132  0.2337465388680775  0.020650091667124393  1.0000
  O   O2        1.0  0.8589802807875295  0.2766682227722401  0.8965818619545693  1.0000
  C   C25       1.0  0.8224128587604066  0.37458711052703  0.8121793288147434  1.0000
  C   C26       1.0  0.7701205495862009  0.28477616311926623  0.07386890889730902  1.0000
  C   C27       1.0  0.7478833333478957  0.23831087521888805  0.19764964397797202  1.0000
  C   C28       1.0  0.7895145175398532  0.1413706560919652  0.2696622690038868  1.0000
  H   H9        1.0  0.9392716205357793  0.271112663708611  0.9011859281009573  1.0000
  H   H10       1.0  0.9106972031170852  0.18443450612445167  0.4535467695791083  1.0000
  H   H11       1.0  0.9091075172732819  0.7673022594718595  0.4540351632340305  1.0000
  H   H12       1.0  0.9324897908761706  0.9493903227272683  0.8164220869466146  1.0000
  H   H13       1.0  0.9255898296317526  0.511725470246348  0.6960501644881332  1.0000
  H   H14       1.0  0.9255824291178321  0.09780352463147547  0.05209219904514306  1.0000
  H   H15       1.0  0.8537131464806568  0.3890777486500843  0.720886045247072  1.0000
  H   H16       1.0  0.8235413440660013  0.4680761191837613  0.8592797650291177  1.0000
  H   H17       1.0  0.7622887115596025  0.3437375802353986  0.7875097088088362  1.0000
  H   H18       1.0  0.7367977225366468  0.3598397821227952  0.020270856655237205  1.0000
  H   H19       1.0  0.6979867764815572  0.2771753524921059  0.23771591865822028  1.0000
  H   H20       1.0  0.7703720875229187  0.10535249340742504  0.3644556188806376  1.0000
  C   C29       1.0  0.9214954278861834  0.46211155593125564  0.2622334807067952  1.0000
  C   C30       1.0  0.9566844111188549  0.5867459226210221  0.25423301348398986  1.0000
  C   C31       1.0  0.9745345507334385  0.64825115472318  0.1333245724311407  1.0000
  C   C32       1.0  0.9567571703500178  0.5863452327212539  0.01913341581470807  1.0000
  C   C33       1.0  0.9214666471786405  0.4618517400863704  0.02480513966773535  1.0000
  C   C34       1.0  0.9040750580040863  0.40032795966053647  0.14694444179255717  1.0000
  S   S1        1.0  0.020172460935192982  0.8067760733660149  0.12457839287793315  1.0000
  C   C35       1.0  0.11467182576876955  0.7410981923332071  0.13484189352550868  1.0000
  O   O3        1.0  0.14469365575935433  0.7192352255734984  0.030225992412419963  1.0000
  C   C36       1.0  0.1569553267839534  0.7116002539691473  0.2618095151488087  1.0000
  C   C37       1.0  0.22500506290154942  0.6408456470536463  0.26753567592736394  1.0000
  C   C38       1.0  0.2649880978840051  0.6116932738834926  0.3867431404053552  1.0000
  C   C39       1.0  0.23773571726154466  0.652851938093876  0.5014685630572765  1.0000
  C   C40       1.0  0.170510542060462  0.7234837103688693  0.4971899552483952  1.0000
  C   C41       1.0  0.13029855990687356  0.7530002306921395  0.37826331829686827  1.0000
  H   H21       1.0  0.8550553896674551  0.22730566767512128  0.48461197319885385  1.0000
  H   H22       1.0  0.970473298015122  0.6362755705331804  0.3416888381848544  1.0000
  H   H23       1.0  0.9708711994255714  0.6355575352197269  0.9263299878716018  1.0000
  H   H24       1.0  0.8769486411176002  0.3042436047412469  0.1521918224169012  1.0000
  H   H25       1.0  0.9082586596331955  0.4143585885885297  0.6996524569481944  1.0000
  H   H26       1.0  0.2471618811840526  0.6073543158858303  0.18001554332906666  1.0000
  H   H27       1.0  0.31713185608027195  0.5569836352287107  0.39013636260680284  1.0000
  H   H28       1.0  0.2687564625552218  0.6301541307208081  0.593656293764342  1.0000
  H   H29       1.0  0.14954485245637417  0.7556399677893499  0.5861609594560578  1.0000
  H   H30       1.0  0.07873714937090794  0.8086773396451501  0.37814520839082855  1.0000
  Zn  Zn1       1.0  0.8374146371010909  0.458315223658851  0.6366560442517057  1.0000
  Zn  Zn2       1.0  0.005540068713762559  0.4656471462170415  0.6503813464360664  1.0000
  C   C42       1.0  0.92146965413937  0.4567270489992233  0.8806609103500778  1.0000
  C   C43       1.0  0.921486887817377  0.4672370395373755  0.4063767581916715  1.0000
  C   C44       1.0  0.9215094391141349  0.6991782924728194  0.6384224313564764  1.0000
  C   C45       1.0  0.921447045258938  0.22478423321653462  0.6486153012154905  1.0000
  O   O4        1.0  0.9852867460278691  0.4717339592464902  0.45996123767833264  1.0000
  O   O5        1.0  0.9852731082464677  0.45779390925540825  0.8374932435547695  1.0000
  O   O6        1.0  0.9853043749744919  0.6535763166064081  0.6418838881147217  1.0000
  O   O7        1.0  0.985255421934961  0.2759515587171042  0.6555704910844502  1.0000
  O   O8        1.0  0.8576992265069342  0.648010808658179  0.6314668949127205  1.0000
  O   O9        1.0  0.857667959989626  0.4522299616538135  0.8270761816319492  1.0000
  O   O10       1.0  0.8576815978748816  0.46616996692242885  0.4495426146844388  1.0000
  O   O11       1.0  0.8576502737738991  0.2703875570708194  0.6451519654338855  1.0000
