data_image0
_chemical_formula_structural       NC8NC6H8C7F3H5C6H6Zn2C4O8
_chemical_formula_sum              "N2 C31 H19 F3 Zn2 O8"
_cell_length_a       17.457602349358154
_cell_length_b       9.27228830945605
_cell_length_c       10.681121600428288
_cell_angle_alpha    85.26210850016507
_cell_angle_beta     92.87590736930572
_cell_angle_gamma    91.12935064675003

_space_group_name_H-M_alt    "P 1"
_space_group_IT_number       1

loop_
  _space_group_symop_operation_xyz
  'x, y, z'

loop_
  _atom_site_type_symbol
  _atom_site_label
  _atom_site_symmetry_multiplicity
  _atom_site_fract_x
  _atom_site_fract_y
  _atom_site_fract_z
  _atom_site_occupancy
  N   N1        1.0  0.7138269115756426  0.6141446083689229  0.667562944797587  1.0000
  C   C1        1.0  0.6530207711141646  0.5631203084762175  0.6575795455368074  1.0000
  C   C2        1.0  0.5773753155283161  0.4996524282391228  0.645169366463511  1.0000
  C   C3        1.0  0.5186090022011716  0.5442733063074547  0.7171701964280949  1.0000
  C   C4        1.0  0.4443890931579204  0.48315887951549435  0.7053408319473267  1.0000
  C   C5        1.0  0.3820186081681466  0.530271954424314  0.7815931466523032  1.0000
  C   C6        1.0  0.3073626460969106  0.5507910462124535  0.7277198421172835  1.0000
  C   C7        1.0  0.2485974184250063  0.5952075771850123  0.7998257831030807  1.0000
  C   C8        1.0  0.17249971552059556  0.6163997955007884  0.7438128195034905  1.0000
  N   N2        1.0  0.11133011664876914  0.6334312509871096  0.6987785775820556  1.0000
  C   C9        1.0  0.2639945511685854  0.6193751528202249  0.9262940408661624  1.0000
  C   C10       1.0  0.33786350714368724  0.5992882362644159  0.980538953859682  1.0000
  C   C11       1.0  0.3966160643033512  0.5550717500893084  0.908873391072637  1.0000
  C   C12       1.0  0.430228152359673  0.3766709442406368  0.6201326382122585  1.0000
  C   C13       1.0  0.4889810982662411  0.33235968725598153  0.548515986703874  1.0000
  C   C14       1.0  0.562415576590269  0.3935989654994576  0.5608750362738166  1.0000
  H   H1        1.0  0.5305080302053443  0.6278163634804994  0.7810062972828447  1.0000
  H   H2        1.0  0.2951062422502305  0.5341588513214046  0.6294223984870115  1.0000
  H   H3        1.0  0.2189508098728805  0.6536867195151013  0.9828579313104587  1.0000
  H   H4        1.0  0.349596981496906  0.6176510406217126  0.07846788584455566  1.0000
  H   H5        1.0  0.4531904020661641  0.538415279175085  0.9534154482140565  1.0000
  H   H6        1.0  0.3740118001772921  0.32630178385494335  0.6101111623811286  1.0000
  H   H7        1.0  0.4775892726778246  0.2500570560197948  0.4835182180119795  1.0000
  H   H8        1.0  0.6074645087959069  0.3583211364525425  0.5048088055078772  1.0000
  C   C15       1.0  0.9148391871306867  0.2000729775793508  0.6852783221795102  1.0000
  C   C16       1.0  0.9512821054800129  0.28385085831263246  0.5892274998698861  1.0000
  C   C17       1.0  0.9801503684667852  0.2196352947523956  0.48821564242558346  1.0000
  C   C18       1.0  0.9722949354752257  0.07004946215870778  0.4795939568792757  1.0000
  C   C19       1.0  0.9386499027053113  0.9847248807146741  0.577458533697379  1.0000
  C   C20       1.0  0.9103252496467366  0.04749212181534102  0.6810746832849219  1.0000
  C   C21       1.0  0.0054479204844102265  0.00011678723323571787  0.3721974411915845  1.0000
  F   F1        1.0  0.004783686237478156  0.0946845471027622  0.2648670245167186  1.0000
  F   F2        1.0  0.9632115980832688  0.877714415292508  0.34500882552457024  1.0000
  F   F3        1.0  0.08024247325530443  0.9611884506637588  0.4051902148567472  1.0000
  H   H9        1.0  0.7858872510876744  0.27639291861249626  0.9004066490487734  1.0000
  H   H10       1.0  0.9561201802083714  0.40034986754126267  0.5909032532680547  1.0000
  H   H11       1.0  0.00809751144995197  0.2874685679592366  0.41609783728773353  1.0000
  H   H12       1.0  0.936199073195799  0.8681671549740755  0.5744501369347133  1.0000
  H   H13       1.0  0.8746042372134453  0.9160715741637313  0.9815541120593057  1.0000
  C   C22       1.0  0.9125822256665536  0.6237825213174799  0.31543126496148455  1.0000
  C   C23       1.0  0.8581100661388766  0.5408708476717263  0.2500956201495379  1.0000
  C   C24       1.0  0.8581100177576302  0.540870937867276  0.11921347597705599  1.0000
  C   C25       1.0  0.912582164992478  0.6237825891219635  0.050921695551863655  1.0000
  C   C26       1.0  0.9670093661972916  0.7066255626888587  0.1162535315359876  1.0000
  C   C27       1.0  0.9670093565031533  0.7066255398387733  0.24714582953938713  1.0000
  H   H14       1.0  0.9676680144379268  0.7076289791386099  0.6126462427290029  1.0000
  H   H15       1.0  0.8154122159691539  0.47588075942960495  0.3000651379292436  1.0000
  H   H16       1.0  0.815412199588363  0.4758808265714316  0.07156110710883468  1.0000
  H   H17       1.0  0.009712791768955233  0.7716242124732546  0.06632874930648458  1.0000
  H   H18       1.0  0.00971275339327948  0.7716241600170066  0.29475311400702764  1.0000
  H   H19       1.0  0.9676682565031143  0.7076284880463506  0.750717238308192  1.0000
  Zn  Zn1       1.0  0.8285377706611055  0.619706447401948  0.676578351918619  1.0000
  Zn  Zn2       1.0  0.9966193063285711  0.6278575818290115  0.6897734818452874  1.0000
  C   C28       1.0  0.9126111045344096  0.618034317935636  0.9119266527210308  1.0000
  C   C29       1.0  0.9125477982027671  0.6295316208730206  0.4544254390152267  1.0000
  C   C30       1.0  0.9111745163446588  0.8873116570762435  0.6768786336829247  1.0000
  C   C31       1.0  0.9139843382721775  0.36025254539656393  0.689473528915344  1.0000
  O   O1        1.0  0.9763223443837894  0.6345480893872895  0.5060806678211904  1.0000
  O   O2        1.0  0.9764065605811816  0.6192032833387868  0.8702858671233927  1.0000
  O   O3        1.0  0.9752456375830697  0.8366480984723021  0.6804828537998613  1.0000
  O   O4        1.0  0.977483209972082  0.4171032817941233  0.6958835826947758  1.0000
  O   O5        1.0  0.8476738096596073  0.830460744656825  0.6704682465596856  1.0000
  O   O6        1.0  0.8488347234200705  0.613017663079148  0.8602711845117614  1.0000
  O   O7        1.0  0.8487505075415943  0.6283624188489809  0.496064479840407  1.0000
  O   O8        1.0  0.8499113731817185  0.41091760093545404  0.6858674886544933  1.0000
