data_image0
_chemical_formula_structural       NC10NC3NCH9C7OC3NC3H11C7OC3NC3H11Zn2C4O8
_chemical_formula_sum              "N5 C44 H31 O10 Zn2"
_cell_length_a       19.437513618241372
_cell_length_b       10.298746005989749
_cell_length_c       10.298749378158432
_cell_angle_alpha    85.5599185525692
_cell_angle_beta     90.35618214226261
_cell_angle_gamma    89.53148363849229

_space_group_name_H-M_alt    "P 1"
_space_group_IT_number       1

loop_
  _space_group_symop_operation_xyz
  'x, y, z'

loop_
  _atom_site_type_symbol
  _atom_site_label
  _atom_site_symmetry_multiplicity
  _atom_site_fract_x
  _atom_site_fract_y
  _atom_site_fract_z
  _atom_site_occupancy
  N   N1        1.0  0.6478478309710709  0.41071530631965397  0.5757182827374232  1.0000
  C   C1        1.0  0.5889156114870506  0.4277270808741611  0.5727445739525663  1.0000
  C   C2        1.0  0.5154765370922295  0.4489817321550941  0.5690534425658962  1.0000
  C   C3        1.0  0.4737038511356388  0.3477856135950445  0.5573779306840927  1.0000
  C   C4        1.0  0.3978138728148622  0.35785218950716524  0.5501574768005089  1.0000
  C   C5        1.0  0.3582548463308208  0.4386974993599282  0.6159177981896835  1.0000
  C   C6        1.0  0.28207081275141094  0.4300897953455206  0.6074716752460828  1.0000
  C   C7        1.0  0.24892496596958583  0.30873509797385457  0.612097195998788  1.0000
  C   C8        1.0  0.1771888228922674  0.30236389137052155  0.6049275634174947  1.0000
  C   C9        1.0  0.13762790500348163  0.41687460752060645  0.5934946018095666  1.0000
  C   C10       1.0  0.0637772377088174  0.41016521956975777  0.5861568125306436  1.0000
  N   N2        1.0  0.004406399343132498  0.40477146170069744  0.580257688484153  1.0000
  C   C11       1.0  0.170057223809476  0.5379185988293955  0.5896143744508806  1.0000
  C   C12       1.0  0.24177780197949564  0.5445438069284922  0.5968460720015893  1.0000
  C   C13       1.0  0.386958479057605  0.5309758747106588  0.7058593480580543  1.0000
  N   N3        1.0  0.4439466516640358  0.5941963703617539  0.6854629125195664  1.0000
  C   C14       1.0  0.487771576130448  0.5849520050531816  0.5723442581592695  1.0000
  H   H1        1.0  0.4960775565428845  0.2527240090692682  0.5452413821926407  1.0000
  H   H2        1.0  0.3730856103020317  0.2883437214436176  0.4918238808979957  1.0000
  H   H3        1.0  0.2783685314094145  0.2188147026415581  0.6231054572261794  1.0000
  H   H4        1.0  0.15258714970363443  0.20812986406933298  0.6088008879984641  1.0000
  H   H5        1.0  0.1399286223009844  0.6271836760949125  0.5809183607078494  1.0000
  H   H6        1.0  0.2658979891452916  0.639190667625721  0.5929573484279447  1.0000
  H   H7        1.0  0.3569683122640841  0.5513498481774033  0.7902363015846177  1.0000
  H   H8        1.0  0.5305313823713518  0.6552688898967916  0.5781187339794291  1.0000
  H   H9        1.0  0.4580950388407668  0.6130770442800122  0.4816951432272573  1.0000
  C   C15       1.0  0.826097533991429  0.026341770011106158  0.577970456497048  1.0000
  C   C16       1.0  0.8582718044706673  0.034322472733278486  0.4558664798904386  1.0000
  C   C17       1.0  0.87381714327826  0.9212466535193845  0.3934265389182525  1.0000
  C   C18       1.0  0.8582723162241909  0.799085868102487  0.4558173455641841  1.0000
  C   C19       1.0  0.8261632803725788  0.7891348622625801  0.5780168516103623  1.0000
  C   C20       1.0  0.8101140101490153  0.9033279890696447  0.6381614206130297  1.0000
  C   C21       1.0  0.9083777005032126  0.9294729018097473  0.2650411993645212  1.0000
  O   O1        1.0  0.9503830910996084  0.8407969264927053  0.2403618058400245  1.0000
  C   C22       1.0  0.8952872515096372  0.03823765388359313  0.16466121249129873  1.0000
  C   C23       1.0  0.8301395047858103  0.09871684131554104  0.1517234291058571  1.0000
  C   C24       1.0  0.8180755546320791  0.20059747199131303  0.05565573668769508  1.0000
  N   N4        1.0  0.7518265397060035  0.2619371324686634  0.043607377735917385  1.0000
  C   C25       1.0  0.8712017956321504  0.24160589405622623  0.9711914585807226  1.0000
  C   C26       1.0  0.9357213802671931  0.18097257816266807  0.982265032109046  1.0000
  C   C27       1.0  0.9477317898980218  0.07951734101384145  0.07802781185065677  1.0000
  H   H10       1.0  0.7662581704772051  0.21854136442401262  0.8095618712201511  1.0000
  H   H11       1.0  0.8719497853631315  0.1286153426296892  0.4098153107037035  1.0000
  H   H12       1.0  0.8706765889352938  0.7116917244472609  0.4082737662351974  1.0000
  H   H13       1.0  0.785316848203573  0.8964241748024779  0.7322834127005386  1.0000
  H   H14       1.0  0.765752128413706  0.5630100550284776  0.8091124239355718  1.0000
  H   H15       1.0  0.788480376521611  0.06600155676206487  0.21516052629047697  1.0000
  H   H16       1.0  0.7118572656630395  0.23214381271772577  0.10605445056059981  1.0000
  H   H17       1.0  0.7422761152524465  0.3377179961386902  0.9722419959497945  1.0000
  H   H18       1.0  0.8625251438364774  0.32010867141040533  0.8965882116306404  1.0000
  H   H19       1.0  0.9765373425524302  0.21266651770728773  0.916484713721033  1.0000
  H   H20       1.0  0.9981913736279794  0.034033661596242215  0.08519827455943085  1.0000
  C   C28       1.0  0.8260986832453309  0.40776684143769626  0.19659220238216535  1.0000
  C   C29       1.0  0.8636895228169215  0.5240149666508533  0.1870580815530838  1.0000
  C   C30       1.0  0.8820074764861369  0.5836105329539767  0.06498954444538518  1.0000
  C   C31       1.0  0.8636922613530111  0.5240637866121436  0.9518140899170755  1.0000
  C   C32       1.0  0.8261621213134783  0.4077097467722871  0.9593951164304946  1.0000
  C   C33       1.0  0.8074454617902918  0.3504828585839847  0.08220743449106992  1.0000
  C   C34       1.0  0.9222609904618602  0.7057179760914298  0.05482922430785985  1.0000
  O   O2        1.0  0.9652520007098094  0.7233456793543651  0.9640307369045752  1.0000
  C   C35       1.0  0.9137449997162397  0.8078194892766561  0.14761658355203422  1.0000
  C   C36       1.0  0.8493820118506716  0.8314683757654382  0.20350277774667622  1.0000
  C   C37       1.0  0.8416945352424117  0.9291069114000718  0.29011100711720195  1.0000
  N   N5        1.0  0.7761934692221655  0.9520523314612911  0.34695055445716716  1.0000
  C   C38       1.0  0.8984727148722838  0.004418051864275352  0.32023609633744843  1.0000
  C   C39       1.0  0.9622937126625047  0.9827290188126241  0.26388378435969106  1.0000
  C   C40       1.0  0.9699415676237916  0.8854028408995444  0.17765187381412706  1.0000
  H   H21       1.0  0.7559822250502938  0.1870861456811212  0.4220589607597891  1.0000
  H   H22       1.0  0.8794055727260393  0.5676025420311726  0.2748069374771549  1.0000
  H   H23       1.0  0.8782059166302607  0.5693477041320453  0.8575952746400137  1.0000
  H   H24       1.0  0.778472983045364  0.2608740831670744  0.0888047726133685  1.0000
  H   H25       1.0  0.7554980757966486  0.18761721756165242  0.7664383239446017  1.0000
  H   H26       1.0  0.8049854749654908  0.7751963655814177  0.1788911497273249  1.0000
  H   H27       1.0  0.7335262715782092  0.8964867325658443  0.32517598040495344  1.0000
  H   H28       1.0  0.7698959838938767  0.02468190764154254  0.4113624359975585  1.0000
  H   H29       1.0  0.8931926164749803  0.08012689195131051  0.38690645753016856  1.0000
  H   H30       1.0  0.005955467979452237  0.041473304767393415  0.2870795606611938  1.0000
  H   H31       1.0  0.019922068720682917  0.8699237071270634  0.13528685155879527  1.0000
  Zn  Zn1       1.0  0.7507429375468062  0.4089965510805981  0.5770357665621784  1.0000
  Zn  Zn2       1.0  0.9015112989450269  0.4064795456800683  0.5789508747931941  1.0000
  C   C41       1.0  0.8261481641080912  0.4025464623425896  0.8152087003660058  1.0000
  C   C42       1.0  0.8261077189214331  0.41293124568262884  0.34077808947932153  1.0000
  C   C43       1.0  0.8261468889276471  0.6449511601271135  0.5728324351196086  1.0000
  C   C44       1.0  0.8261089425264174  0.17052498831579288  0.5831544232218258  1.0000
  O   O3        1.0  0.8833265583031265  0.41370361026670305  0.38989496359173076  1.0000
  O   O4        1.0  0.8833590223696665  0.39986276912074326  0.7675449751507999  1.0000
  O   O5        1.0  0.8833572214612271  0.5956076409829434  0.5718244163968123  1.0000
  O   O6        1.0  0.8833283077572366  0.2179587485616883  0.5856154243098097  1.0000
  O   O7        1.0  0.7689258772847534  0.5975173490593229  0.5703712163851988  1.0000
  O   O8        1.0  0.7689276783188098  0.40177403763977887  0.7660917059827155  1.0000
  O   O9        1.0  0.7688952141642227  0.4156148336419702  0.38844013288754636  1.0000
  O   O10       1.0  0.7688969636228191  0.21986996264011435  0.5841606909811703  1.0000
