data_image0
_chemical_formula_structural       NC10NC3NH7C12NH10C12NCOCH13Zn2C4O8
_chemical_formula_sum              "N5 C43 H30 O9 Zn2"
_cell_length_a       19.210446455230148
_cell_length_b       10.299770795358612
_cell_length_c       10.299158637457994
_cell_angle_alpha    85.57628442395506
_cell_angle_beta     89.9723271520695
_cell_angle_gamma    89.96457025778629

_space_group_name_H-M_alt    "P 1"
_space_group_IT_number       1

loop_
  _space_group_symop_operation_xyz
  'x, y, z'

loop_
  _atom_site_type_symbol
  _atom_site_label
  _atom_site_symmetry_multiplicity
  _atom_site_fract_x
  _atom_site_fract_y
  _atom_site_fract_z
  _atom_site_occupancy
  N   N1        1.0  0.6559448922748531  0.4196774167975523  0.5672502118609533  1.0000
  C   C1        1.0  0.5957164893424196  0.42188497166120836  0.5674812695939764  1.0000
  C   C2        1.0  0.5209122313300838  0.4246219353725016  0.5677675212076794  1.0000
  C   C3        1.0  0.48530854619491354  0.5408555062709275  0.5828745596336125  1.0000
  C   C4        1.0  0.4126430867365978  0.5410070230813833  0.5828219556223406  1.0000
  C   C5        1.0  0.3757455213100497  0.42533091898301917  0.5678539753768359  1.0000
  C   C6        1.0  0.2984233062057536  0.423974416105745  0.5677034389376252  1.0000
  C   C7        1.0  0.2606869278074455  0.5275218344801993  0.5043369595751068  1.0000
  C   C8        1.0  0.18790847668076535  0.5261195912406906  0.5042279430440955  1.0000
  C   C9        1.0  0.1518650211893131  0.4214274177361874  0.5674343980251613  1.0000
  C   C10       1.0  0.0769354176211814  0.42012531258113567  0.567297622692871  1.0000
  N   N2        1.0  0.016697498149659203  0.4190783758402204  0.567187690203655  1.0000
  C   C11       1.0  0.1888777559051054  0.31800568126499984  0.6307758635372605  1.0000
  C   C12       1.0  0.26165802648578  0.31913367818059024  0.630935137650309  1.0000
  C   C13       1.0  0.4139591706415384  0.3109176692008728  0.5530350274297788  1.0000
  N   N3        1.0  0.4847292880243137  0.31336265691306164  0.5532004893055589  1.0000
  H   H1        1.0  0.5134148276890678  0.6302915958225932  0.5949193305471967  1.0000
  H   H2        1.0  0.3853793893046005  0.6310254352286975  0.5962614338599483  1.0000
  H   H3        1.0  0.2874280914996977  0.6087566692664266  0.4533426440142121  1.0000
  H   H4        1.0  0.1597756865533986  0.6065271815162885  0.4545640632394106  1.0000
  H   H5        1.0  0.16149715278790272  0.23663467765196097  0.6803402982720839  1.0000
  H   H6        1.0  0.2891457417939707  0.23884575356194904  0.682036747182196  1.0000
  H   H7        1.0  0.3876886127863142  0.22003633585572402  0.5395493378737481  1.0000
  C   C14       1.0  0.8362614346989237  0.038009487280416185  0.5672585558839935  1.0000
  C   C15       1.0  0.8160801726939779  0.04717227888348473  0.43585032019782305  1.0000
  C   C16       1.0  0.8059180218557115  0.9346788616177767  0.3692296245680253  1.0000
  C   C17       1.0  0.8162075939391911  0.8118904298965982  0.43578174457508867  1.0000
  C   C18       1.0  0.8363875961537228  0.8007363487646932  0.5671905310325083  1.0000
  C   C19       1.0  0.8463018467519182  0.9143505718117803  0.6321929399264163  1.0000
  C   C20       1.0  0.7845677227401733  0.9454259679827801  0.2302073382341563  1.0000
  C   C21       1.0  0.7338891404755113  0.03667219975821423  0.18502850332063892  1.0000
  C   C22       1.0  0.7138240864329259  0.04665810103770962  0.05417966136357455  1.0000
  C   C23       1.0  0.7440578380179647  0.9658171172219165  0.9664295602500229  1.0000
  C   C24       1.0  0.7945695344295636  0.8747689325303756  0.010717856262236095  1.0000
  C   C25       1.0  0.8146903559786032  0.8645269023912319  0.1415367152357061  1.0000
  N   N4        1.0  0.7235042279904436  0.9761628402478933  0.8325962672969616  1.0000
  H   H8        1.0  0.8439218226559471  0.36197035293379903  0.6173483235812982  1.0000
  H   H9        1.0  0.8091399036285007  0.14207114057771109  0.38449876163221686  1.0000
  H   H10       1.0  0.8075198380691929  0.7248582752091284  0.38537060158139425  1.0000
  H   H11       1.0  0.8618702470998216  0.9065138578979197  0.7335685742114382  1.0000
  H   H12       1.0  0.8441073790178519  0.4690336305964569  0.6172486666975523  1.0000
  H   H13       1.0  0.7091159552034303  0.09914759067753254  0.2512366961990258  1.0000
  H   H14       1.0  0.6745844523397827  0.11719290527394867  0.02127455866128125  1.0000
  H   H15       1.0  0.8544638734719411  0.7945009796015345  0.17300216825721693  1.0000
  H   H16       1.0  0.7457457640662084  0.916307455851561  0.7664521256132564  1.0000
  H   H17       1.0  0.6858940613265949  0.04375456160959933  0.7986677039677993  1.0000
  C   C26       1.0  0.8363897569008829  0.41923483748639834  0.18585147612251407  1.0000
  C   C27       1.0  0.838029710058151  0.5559352326199081  0.17452546816046355  1.0000
  C   C28       1.0  0.8388065786575656  0.625384172122267  0.05162539011883416  1.0000
  C   C29       1.0  0.8378965148531275  0.5562953231639098  0.9392139805969553  1.0000
  C   C30       1.0  0.8362592803459372  0.41951101471467317  0.9485976894121267  1.0000
  C   C31       1.0  0.8355190256509696  0.3518218215021609  0.07230425027576048  1.0000
  C   C32       1.0  0.8405422820541353  0.7699964143640157  0.04061740190887675  1.0000
  C   C33       1.0  0.8832779909607527  0.8377592866064886  0.12317133422656013  1.0000
  C   C34       1.0  0.8849170524010112  0.9738470239955506  0.1126813785125591  1.0000
  C   C35       1.0  0.8442943530858986  0.04489976994349742  0.018532537993902757  1.0000
  C   C36       1.0  0.8007297329450802  0.9774986617155259  0.9377617965973003  1.0000
  C   C37       1.0  0.7991192545531078  0.8414387862853384  0.9479907580138608  1.0000
  N   N5        1.0  0.8440516898712958  0.18494600131408312  0.007284724143179491  1.0000
  C   C38       1.0  0.9037041077531507  0.26383475914532717  0.030498914569411006  1.0000
  O   O1        1.0  0.9637124240772029  0.2143225019695096  0.03900905076421912  1.0000
  C   C39       1.0  0.8955625989537004  0.40766327771117433  0.03509007180188828  1.0000
  H   H18       1.0  0.8357807688434915  0.36665212020818694  0.5176837129811476  1.0000
  H   H19       1.0  0.8377341541498176  0.60875291577784  0.2614716685253402  1.0000
  H   H20       1.0  0.8394143962693422  0.6093063502094314  0.8442373857038095  1.0000
  H   H21       1.0  0.8342564743655174  0.24638160898997594  0.08032536727842388  1.0000
  H   H22       1.0  0.8335916727179576  0.16132170899219744  0.7590166607407696  1.0000
  H   H23       1.0  0.9158487180367119  0.785478216279612  0.19536288287006487  1.0000
  H   H24       1.0  0.9170463067571516  0.02313320308099387  0.1797029309248661  1.0000
  H   H25       1.0  0.7681789705102368  0.03065470530512515  0.8661394571043344  1.0000
  H   H26       1.0  0.7647095036418644  0.7921096139021395  0.8846538468761632  1.0000
  H   H27       1.0  0.7989365126375578  0.23247586088971772  0.9723415811315644  1.0000
  H   H28       1.0  0.8466196556746232  0.42945920305570956  0.08651442125907272  1.0000
  H   H29       1.0  0.8936987986800111  0.4543336650680318  0.9343674415920648  1.0000
  H   H30       1.0  0.939978906652223  0.4483571250307707  0.08773350260245749  1.0000
  Zn  Zn1       1.0  0.7600502989497111  0.4195010851833705  0.5672396689192676  1.0000
  Zn  Zn2       1.0  0.9125920719648871  0.4192441287713944  0.5672088699821956  1.0000
  C   C40       1.0  0.8362815323847361  0.41428512210636126  0.8044227588792119  1.0000
  C   C41       1.0  0.8363625045305273  0.4244617277060459  0.3300259070077347  1.0000
  C   C42       1.0  0.8363610553728007  0.6565628616835493  0.5620282002342447  1.0000
  C   C43       1.0  0.8362829292206762  0.1821824279410602  0.5724205350416596  1.0000
  O   O2        1.0  0.8942421653300126  0.42611274045875036  0.3784004755313479  1.0000
  O   O3        1.0  0.8941775476292954  0.41243810552595495  0.7560244409121877  1.0000
  O   O4        1.0  0.8942409828480401  0.6080804460581855  0.5602891198618734  1.0000
  O   O5        1.0  0.8941786780772878  0.23047040926915718  0.5741356992156095  1.0000
  O   O6        1.0  0.7784636407822915  0.6082748047747056  0.5603128396895325  1.0000
  O   O7        1.0  0.778400205830314  0.41263402451937065  0.7560480913545682  1.0000
  O   O8        1.0  0.7784648238369434  0.42630861363086914  0.3784225645599675  1.0000
  O   O9        1.0  0.7784013365631794  0.23066627318773691  0.5741578856139606  1.0000
