data_image0
_chemical_formula_structural       NC8NC6H8C6OCH8C6NH7Zn2C4O8
_chemical_formula_sum              "N3 C31 H23 O9 Zn2"
_cell_length_a       17.457602349358154
_cell_length_b       9.273888216677433
_cell_length_c       9.274774538082514
_cell_angle_alpha    85.2669921481321
_cell_angle_beta     93.23827242343725
_cell_angle_gamma    91.10627454168798

_space_group_name_H-M_alt    "P 1"
_space_group_IT_number       1

loop_
  _space_group_symop_operation_xyz
  'x, y, z'

loop_
  _atom_site_type_symbol
  _atom_site_label
  _atom_site_symmetry_multiplicity
  _atom_site_fract_x
  _atom_site_fract_y
  _atom_site_fract_z
  _atom_site_occupancy
  N   N1        1.0  0.7088320906604259  0.6257662383655587  0.47808194171724244  1.0000
  C   C1        1.0  0.6479859775159168  0.5748876731293102  0.466127774576109  1.0000
  C   C2        1.0  0.5722908309907654  0.5116009906031347  0.4512674166478938  1.0000
  C   C3        1.0  0.513799746065691  0.5554713428089766  0.5346583088418506  1.0000
  C   C4        1.0  0.4395324467817251  0.494530206754126  0.5204880512121761  1.0000
  C   C5        1.0  0.3774534360468614  0.5408485714514915  0.6088017406558823  1.0000
  C   C6        1.0  0.302593715934174  0.5618791335266982  0.5468766637117728  1.0000
  C   C7        1.0  0.24410410757765696  0.6055442934210539  0.6303869420052377  1.0000
  C   C8        1.0  0.1677945483493521  0.6272684276324696  0.5660011796016005  1.0000
  N   N2        1.0  0.106454617393563  0.6447275483054709  0.5142351731835515  1.0000
  C   C9        1.0  0.2599824856337551  0.6284439608925272  0.7763883806422458  1.0000
  C   C10       1.0  0.3340566283019943  0.6078415128438251  0.8387456146209904  1.0000
  C   C11       1.0  0.3925352465816364  0.5643718750313278  0.7557447432891089  1.0000
  C   C12       1.0  0.4250436239307064  0.38898035794507546  0.4213317964695953  1.0000
  C   C13       1.0  0.483522812873663  0.3454155557235726  0.3383864818101021  1.0000
  C   C14       1.0  0.5570066979850099  0.4064762109083164  0.35316844136669046  1.0000
  H   H1        1.0  0.5259445680841501  0.638308107635528  0.608976857405088  1.0000
  H   H2        1.0  0.28996335109955335  0.5462304201668153  0.43341584556769125  1.0000
  H   H3        1.0  0.21515493393257304  0.6621666042162375  0.8418938265022615  1.0000
  H   H4        1.0  0.34616273407939385  0.6252228564120568  0.9517967282118939  1.0000
  H   H5        1.0  0.44927806247317253  0.5472922374337248  0.8069466413900701  1.0000
  H   H6        1.0  0.36878718092045837  0.3387566983419008  0.40933945510822456  1.0000
  H   H7        1.0  0.4718808318648412  0.2638295040561591  0.26273961220711683  1.0000
  H   H8        1.0  0.6018412914683025  0.3717833023122052  0.2882282529500553  1.0000
  C   C15       1.0  0.90989492210449  0.21190496224903724  0.4948888083054091  1.0000
  C   C16       1.0  0.8915538954451906  0.2954148901030298  0.36431715114721364  1.0000
  C   C17       1.0  0.8667044038094098  0.23057775834861444  0.23881565428162554  1.0000
  C   C18       1.0  0.8600525205442101  0.0792344290245679  0.2434093160359001  1.0000
  C   C19       1.0  0.8791872676172535  0.9945914051241405  0.37127709592151925  1.0000
  C   C20       1.0  0.9053992011950482  0.05857793966223724  0.49744142689004495  1.0000
  O   O1        1.0  0.8488423651544725  0.32024070582170344  0.11253042679658078  1.0000
  C   C21       1.0  0.8227979207612526  0.26922988940060266  0.977351428805016  1.0000
  H   H9        1.0  0.9173139884027975  0.2858527223073162  0.8507100103247482  1.0000
  H   H10       1.0  0.894780227113149  0.4124815380901267  0.3603328393879235  1.0000
  H   H11       1.0  0.8408075522025396  0.025692001569468624  0.14832239221176358  1.0000
  H   H12       1.0  0.8751988431892392  0.8779369740735868  0.37043390104598606  1.0000
  H   H13       1.0  0.9136077425823569  0.7579657845475701  0.7363927663632093  1.0000
  H   H14       1.0  0.7677960159787279  0.20833827529381527  0.9889829295803638  1.0000
  H   H15       1.0  0.8667035467351881  0.19909188208662054  0.9380694712863762  1.0000
  H   H16       1.0  0.813203898882556  0.3631521436576155  0.8966904212994606  1.0000
  C   C22       1.0  0.906250556365959  0.6388629560484933  0.07223472211183513  1.0000
  C   C23       1.0  0.9601644020350214  0.7265283847183193  0.14417082140083481  1.0000
  C   C24       1.0  0.017583400610202696  0.8024827083827443  0.06888265944443628  1.0000
  C   C25       1.0  0.021554981318663083  0.7911259076569049  0.9202259796573814  1.0000
  C   C26       1.0  0.9678704284274048  0.7066479686778572  0.8466192736153277  1.0000
  C   C27       1.0  0.90904357718301  0.6316199091955079  0.9200955065567468  1.0000
  N   N3        1.0  0.07237911495077176  0.8899895784091634  0.14390348494020966  1.0000
  H   H17       1.0  0.7930624358826106  0.35158202624147905  0.18687789644328756  1.0000
  H   H18       1.0  0.9587470173356306  0.7332997506571959  0.2600859915405207  1.0000
  H   H19       1.0  0.06589109222309153  0.8489527961351554  0.8609212164862519  1.0000
  H   H20       1.0  0.9713130202360634  0.7028010745890821  0.7307452106671577  1.0000
  H   H21       1.0  0.8304277392093637  0.44240245248295645  0.6462171582802565  1.0000
  H   H22       1.0  0.07010311273180285  0.898923700530146  0.25509808598656325  1.0000
  H   H23       1.0  0.11561383092585299  0.9466299918454635  0.08878329858605684  1.0000
  Zn  Zn1       1.0  0.8235774107746949  0.6312341256158813  0.4885233070216397  1.0000
  Zn  Zn2       1.0  0.9917093847248832  0.6392477403787065  0.5038055913814465  1.0000
  C   C28       1.0  0.9085444239902584  0.6272458608703096  0.7598141954809539  1.0000
  C   C29       1.0  0.9067441983135858  0.6432379103868358  0.2325150169801018  1.0000
  C   C30       1.0  0.906226101995997  0.8985876813903156  0.4912058356217149  1.0000
  C   C31       1.0  0.9090624723865007  0.3718943544467874  0.5011234433685021  1.0000
  O   O2        1.0  0.9707151103428964  0.6477410207599115  0.2921060764252261  1.0000
  O   O3        1.0  0.972181794285838  0.6288238146799914  0.7118216174101573  1.0000
  O   O4        1.0  0.9703088647764518  0.8479357125164517  0.49491839271253274  1.0000
  O   O5        1.0  0.9725879820688992  0.4286291314263189  0.5090091876972713  1.0000
  O   O6        1.0  0.842698756055454  0.84185273183525  0.4833197054831327  1.0000
  O   O7        1.0  0.8445716761109621  0.6227425666858128  0.7002228584289132  1.0000
  O   O8        1.0  0.8431049867681917  0.6416597373585315  0.2805055816412596  1.0000
  O   O9        1.0  0.8449778589023536  0.42254783678905233  0.4974088011162021  1.0000
