data_image0
_chemical_formula_structural       NC12NC2H8C12SCH12C12ClH8Zn2C4O8
_chemical_formula_sum              "N2 C43 H28 S1 Cl1 Zn2 O8"
_cell_length_a       17.80743265337812
_cell_length_b       10.299776766347529
_cell_length_c       10.299771906710086
_cell_angle_alpha    85.54586025256013
_cell_angle_beta     91.54320236892109
_cell_angle_gamma    89.41689066054833

_space_group_name_H-M_alt    "P 1"
_space_group_IT_number       1

loop_
  _space_group_symop_operation_xyz
  'x, y, z'

loop_
  _atom_site_type_symbol
  _atom_site_label
  _atom_site_symmetry_multiplicity
  _atom_site_fract_x
  _atom_site_fract_y
  _atom_site_fract_z
  _atom_site_occupancy
  N   N1        1.0  0.7070191577047198  0.4070298632704554  0.6013930086601686  1.0000
  C   C1        1.0  0.6561869056055201  0.43660588067393147  0.5326959627832211  1.0000
  C   C2        1.0  0.5929465704830673  0.4733962985435553  0.44724548555322946  1.0000
  C   C3        1.0  0.6046504093548644  0.5274487189189137  0.32062883647044726  1.0000
  C   C4        1.0  0.5433179498990867  0.562734948842472  0.23757426659196487  1.0000
  C   C5        1.0  0.4701272328108182  0.5442323883734104  0.280476459217774  1.0000
  C   C6        1.0  0.4574466900730903  0.4900610473015323  0.4075612421155159  1.0000
  C   C7        1.0  0.5196364633485125  0.4547780754360365  0.4905993005809048  1.0000
  C   C8        1.0  0.3796882629148457  0.470443642613052  0.4533236616412017  1.0000
  C   C9        1.0  0.360910378548194  0.4975978419650975  0.5803677297748562  1.0000
  C   C10       1.0  0.2876897118567642  0.4791368443645334  0.6233104863750247  1.0000
  C   C11       1.0  0.23230409491466522  0.43326716608575744  0.5400471261978611  1.0000
  C   C12       1.0  0.15694707265611677  0.41425299329391607  0.5843907771154708  1.0000
  N   N2        1.0  0.09636536325855652  0.3989668771799173  0.6200400219052393  1.0000
  C   C13       1.0  0.2503905744572293  0.4059439185554974  0.4135460163696246  1.0000
  C   C14       1.0  0.3235583565932081  0.4244197658908677  0.3703473757641469  1.0000
  H   H1        1.0  0.6611096935089054  0.542281061515457  0.2861926963884575  1.0000
  H   H2        1.0  0.5524978751031253  0.6048563610184752  0.139797624892678  1.0000
  H   H3        1.0  0.42347544227426515  0.5738842328868297  0.21488733163980386  1.0000
  H   H4        1.0  0.5111551733842898  0.4112713934021466  0.588251450133817  1.0000
  H   H5        1.0  0.40258652513883236  0.5347604367834777  0.6459414837704773  1.0000
  H   H6        1.0  0.2742524086303693  0.5009576559546602  0.7213191728309699  1.0000
  H   H7        1.0  0.2079973494301971  0.3700484952150316  0.34838525655338776  1.0000
  H   H8        1.0  0.33646759112222757  0.4010633390826457  0.2726419689104729  1.0000
  C   C15       1.0  0.9017666924685066  0.02163170308817498  0.6107184657790033  1.0000
  C   C16       1.0  0.9062939458830266  0.009937348213276544  0.7474485029510756  1.0000
  C   C17       1.0  0.908515610457224  0.8868746008829689  0.816732595523745  1.0000
  C   C18       1.0  0.9061502939407389  0.7746525423926438  0.7474568132766938  1.0000
  C   C19       1.0  0.9016250469160675  0.7843549084197508  0.6107261228183677  1.0000
  C   C20       1.0  0.8994581547396623  0.9082826038675528  0.5431223090343182  1.0000
  C   C21       1.0  0.9132966545401213  0.8755673705160262  0.9613771509610961  1.0000
  C   C22       1.0  0.8703069664413597  0.7829761524652494  0.033360564187449364  1.0000
  C   C23       1.0  0.8748290510451269  0.772568715006426  0.16948576777659394  1.0000
  C   C24       1.0  0.9221536810585808  0.8544772888553799  0.23542525859669983  1.0000
  C   C25       1.0  0.9653227800670164  0.9464906141178835  0.16482349588286105  1.0000
  C   C26       1.0  0.9609108555966033  0.9572456619986801  0.028693153246036936  1.0000
  S   S1        1.0  0.9280389834579951  0.8406608614133299  0.4100965908038085  1.0000
  C   C27       1.0  0.85254798025366  0.9582804700918144  0.42600971443726504  1.0000
  H   H9        1.0  0.9000711595645116  0.353540653028664  0.5586195304613921  1.0000
  H   H10       1.0  0.9070668105721815  0.09673735803608441  0.800443584879482  1.0000
  H   H11       1.0  0.9088820024184379  0.6795672347005219  0.8003495747944986  1.0000
  H   H12       1.0  0.8959660848815353  0.9165358024901508  0.43764092369628427  1.0000
  H   H13       1.0  0.899863215659003  0.46059895585040544  0.5586286780117802  1.0000
  H   H14       1.0  0.8324839068079147  0.7198087531064844  0.9844352097797829  1.0000
  H   H15       1.0  0.8412457224716097  0.7011860677865798  0.22359857883625023  1.0000
  H   H16       1.0  0.0023464163434334644  0.009729992591186674  0.21529949006364865  1.0000
  H   H17       1.0  0.9954425074870804  0.028239317954239746  0.9760387959290712  1.0000
  H   H18       1.0  0.8675828156767169  0.05431271492637868  0.37785236471698097  1.0000
  H   H19       1.0  0.8438525749306838  0.9691100069773821  0.5308720165960751  1.0000
  H   H20       1.0  0.7996796989557086  0.923854789247065  0.3813558138021757  1.0000
  C   C28       1.0  0.9016600802433832  0.40310036670087745  0.22935130326801428  1.0000
  C   C29       1.0  0.9697897045897931  0.47057186317543653  0.22628784876412972  1.0000
  C   C30       1.0  0.004348194728453602  0.5046513010587168  0.10760698805734537  1.0000
  C   C31       1.0  0.9698622151000332  0.470355201102163  0.9910215411710146  1.0000
  C   C32       1.0  0.9017316243444738  0.4028862845103802  0.9920932934783693  1.0000
  C   C33       1.0  0.8680124311133858  0.3696358557541841  0.1117444943422665  1.0000
  C   C34       1.0  0.07642415554727822  0.5760291120667471  0.10541987997979606  1.0000
  C   C35       1.0  0.08827860101638518  0.6787879195354865  0.1857916746881889  1.0000
  C   C36       1.0  0.1561520541965613  0.7458691055334512  0.1835473678053363  1.0000
  C   C37       1.0  0.21294117991380035  0.7112225194017194  0.10127847199622697  1.0000
  C   C38       1.0  0.20180378572925162  0.6093083224458851  0.021069830473769754  1.0000
  C   C39       1.0  0.13399770820707935  0.5420254209432771  0.022941729163306945  1.0000
  Cl  Cl1       1.0  0.2980536197872208  0.7955094747645534  0.09869678717908026  1.0000
  H   H21       1.0  0.9966640351904371  0.4952146333325236  0.31655622359204183  1.0000
  H   H22       1.0  0.9957463888819504  0.4979600310542233  0.8991521787375109  1.0000
  H   H23       1.0  0.8154531052458189  0.31758583139982255  0.11333958412861822  1.0000
  H   H24       1.0  0.8757850612539967  0.377131307420566  0.6650524897322251  1.0000
  H   H25       1.0  0.044720743926527584  0.7083428602676185  0.24908003570468495  1.0000
  H   H26       1.0  0.16444428886371765  0.8249707014457518  0.24557962451493953  1.0000
  H   H27       1.0  0.245704087356631  0.5818934198026685  0.9574543356648362  1.0000
  H   H28       1.0  0.1269525257016395  0.4623577262563996  0.9611887223958107  1.0000
  Zn  Zn1       1.0  0.8193760669716772  0.4046995902940704  0.6067816208232516  1.0000
  Zn  Zn2       1.0  0.9840084544590829  0.4012865537878246  0.6146620027445203  1.0000
  C   C40       1.0  0.9017173929930241  0.39775311245672024  0.8479185670623557  1.0000
  C   C41       1.0  0.9016689259258863  0.4082346329287687  0.3735252700424828  1.0000
  C   C42       1.0  0.9016474484144148  0.6401855262998843  0.6055492715518804  1.0000
  C   C43       1.0  0.9017388146232775  0.16580065993769802  0.6158946320873232  1.0000
  O   O1        1.0  0.9641490287326767  0.40865684430302124  0.4249019341509067  1.0000
  O   O2        1.0  0.9641894631019375  0.39473950573491146  0.802522556634685  1.0000
  O   O3        1.0  0.964132139875185  0.5905067629708369  0.6068075954056988  1.0000
  O   O4        1.0  0.964206295770687  0.212889597549234  0.6206167953157506  1.0000
  O   O5        1.0  0.8391781694791185  0.5930965476987788  0.6008268255560028  1.0000
  O   O6        1.0  0.8392354924061345  0.397330850776877  0.7965417175546053  1.0000
  O   O7        1.0  0.8391950579487674  0.411248144526573  0.4189195336636271  1.0000
  O   O8        1.0  0.8392523249945649  0.21548088845676472  0.6146344921965949  1.0000
