data_image0
_chemical_formula_structural       NC10NC3NH7C7OC4NC3H8C7OC3OC4H12Zn2C4O8
_chemical_formula_sum              "N4 C45 H27 O11 Zn2"
_cell_length_a       19.210446455230148
_cell_length_b       10.299371701877257
_cell_length_c       10.299374482448636
_cell_angle_alpha    85.56746279880974
_cell_angle_beta     89.97251480092041
_cell_angle_gamma    89.95709994445667

_space_group_name_H-M_alt    "P 1"
_space_group_IT_number       1

loop_
  _space_group_symop_operation_xyz
  'x, y, z'

loop_
  _atom_site_type_symbol
  _atom_site_label
  _atom_site_symmetry_multiplicity
  _atom_site_fract_x
  _atom_site_fract_y
  _atom_site_fract_z
  _atom_site_occupancy
  N   N1        1.0  0.6558426710000534  0.42053150531980593  0.5678351937477952  1.0000
  C   C1        1.0  0.5956141139889661  0.4227389345862349  0.5680672214938254  1.0000
  C   C2        1.0  0.5208096649468889  0.42547574270864424  0.568354675740652  1.0000
  C   C3        1.0  0.48519787299324096  0.5417009617765942  0.5835128601311506  1.0000
  C   C4        1.0  0.4125324028239909  0.5418525104405205  0.5834603210160456  1.0000
  C   C5        1.0  0.37564290546685214  0.42618467874179317  0.5684414417422625  1.0000
  C   C6        1.0  0.29832078502417303  0.42482825809967517  0.5682903090373539  1.0000
  C   C7        1.0  0.2605770323897159  0.528413653492082  0.5049675068024873  1.0000
  C   C8        1.0  0.1877986792089066  0.5270114677140316  0.5048578750443538  1.0000
  C   C9        1.0  0.15176267777334493  0.42228140609091347  0.5680201488980652  1.0000
  C   C10       1.0  0.07683316508606831  0.4209793753067634  0.5678828014008792  1.0000
  N   N2        1.0  0.0165953186859166  0.4199324983392129  0.5677724088726368  1.0000
  C   C11       1.0  0.1887827778775537  0.31882170801573206  0.6313179915706  1.0000
  C   C12       1.0  0.2615629698101334  0.3199496163920261  0.6314777623443395  1.0000
  C   C13       1.0  0.4138645347588766  0.3117796195467173  0.5535721500866466  1.0000
  N   N3        1.0  0.4846344813119012  0.31422452162378334  0.5537386840837596  1.0000
  H   H1        1.0  0.5132979175176495  0.6311303763267813  0.5955969957108818  1.0000
  H   H2        1.0  0.3852624304212091  0.6318634259633251  0.596939452548924  1.0000
  H   H3        1.0  0.2873124083189128  0.6096790399283842  0.45400742525743726  1.0000
  H   H4        1.0  0.1596601618646729  0.6074488189892606  0.4552279005569899  1.0000
  H   H5        1.0  0.1614079692224415  0.23742099739264205  0.6808480976926254  1.0000
  H   H6        1.0  0.2890564068069874  0.23963108141137843  0.682545554139429  1.0000
  H   H7        1.0  0.3876003121903433  0.22090580584559816  0.5400464291456892  1.0000
  C   C14       1.0  0.8361859315174991  0.038861669106410084  0.5676768117716819  1.0000
  C   C15       1.0  0.8395912720285151  0.04822934670990153  0.43100934967954796  1.0000
  C   C16       1.0  0.8405184374867446  0.9357865584727073  0.3620158083426632  1.0000
  C   C17       1.0  0.8395998289653676  0.8129609414094382  0.43132674865264864  1.0000
  C   C18       1.0  0.8362587065467413  0.8015923432992127  0.5679420149931  1.0000
  C   C19       1.0  0.8343879480340547  0.9151447735343943  0.6353107927843846  1.0000
  C   C20       1.0  0.8448452882270105  0.9455331943403367  0.21776298257833315  1.0000
  O   O1        1.0  0.8783574778208135  0.8597437737324671  0.16281048753308025  1.0000
  C   C21       1.0  0.8111429290746206  0.052521873085567446  0.13585547895270023  1.0000
  C   C22       1.0  0.8409759181319059  0.09714510676115484  0.015878281222106546  1.0000
  C   C23       1.0  0.8091088984811879  0.19711993725024587  0.9370919070097389  1.0000
  C   C24       1.0  0.8402926862694967  0.24292549819690512  0.8149282934475548  1.0000
  N   N4        1.0  0.8653630611237302  0.27974353784914907  0.7167264629769154  1.0000
  C   C25       1.0  0.7468893651474141  0.25239213712837394  0.9772751573111864  1.0000
  C   C26       1.0  0.7164690530641358  0.20755966468146966  0.09551288227503862  1.0000
  C   C27       1.0  0.7481362110832707  0.10788264317422323  0.17428789349349194  1.0000
  H   H8        1.0  0.8423061936499601  0.1431611253238012  0.37812148807143764  1.0000
  H   H9        1.0  0.8408304939729092  0.7261339577609146  0.3783135072282209  1.0000
  H   H10       1.0  0.8317630601347136  0.9071190862455105  0.7406716647175828  1.0000
  H   H11       1.0  0.8355610783858918  0.4697636491906186  0.6204681662186307  1.0000
  H   H12       1.0  0.8892549779660602  0.05498129397814865  0.9842925321075722  1.0000
  H   H13       1.0  0.7218057947049683  0.3296643138638769  0.9170391624546225  1.0000
  H   H14       1.0  0.6680713300953403  0.24974013347338708  0.12594562918991037  1.0000
  H   H15       1.0  0.7229724727231387  0.07319313720523679  0.26444990987979655  1.0000
  C   C28       1.0  0.8362868108811197  0.4203143995277065  0.18642689867815876  1.0000
  C   C29       1.0  0.9089976880023388  0.4348580379281343  0.18404796985442307  1.0000
  C   C30       1.0  0.9455832518885003  0.44366498391306414  0.06556084319786892  1.0000
  C   C31       1.0  0.908831295424707  0.43479444324027555  0.9488091258531831  1.0000
  C   C32       1.0  0.8361578156960958  0.42013962015431994  0.949191887689536  1.0000
  C   C33       1.0  0.8002864139313459  0.41332545791365516  0.06850705818201686  1.0000
  C   C34       1.0  0.022442481947847485  0.4576634065507052  0.06301336606121177  1.0000
  O   O2        1.0  0.0565884393830709  0.40406454499911737  0.977141674340638  1.0000
  C   C35       1.0  0.06056189995645922  0.5324816834367674  0.15780059299294757  1.0000
  C   C36       1.0  0.1284721816738903  0.4956509977851571  0.19594028858328838  1.0000
  C   C37       1.0  0.16566022504887593  0.5658534810785101  0.2841615878401446  1.0000
  O   O3        1.0  0.2330046584292267  0.5238493661588812  0.3194285380493336  1.0000
  C   C38       1.0  0.2766240188724447  0.5856477851411133  0.40783478725091954  1.0000
  C   C39       1.0  0.13455318177114228  0.6752920021967777  0.3341196934973609  1.0000
  C   C40       1.0  0.06745575523311298  0.7134545543257109  0.29546976576160633  1.0000
  C   C41       1.0  0.03066945528113485  0.6430183942321723  0.2074893481142472  1.0000
  H   H16       1.0  0.6991912443853882  0.39088103488607956  0.3983914444184511  1.0000
  H   H17       1.0  0.9373488225223989  0.43790295760207787  0.27463539126261827  1.0000
  H   H18       1.0  0.9370221169290958  0.44060322993987516  0.8574126435472257  1.0000
  H   H19       1.0  0.7442316399339949  0.40211252385261836  0.06953732276182012  1.0000
  H   H20       1.0  0.8083054458333687  0.4134262851492847  0.6219656050255469  1.0000
  H   H21       1.0  0.1526046539649366  0.41129864563018287  0.15802826184163732  1.0000
  H   H22       1.0  0.32672529728230404  0.5322072770306112  0.41776620022133604  1.0000
  H   H23       1.0  0.2514877802140745  0.5838885786052204  0.5050732404847567  1.0000
  H   H24       1.0  0.2873355440671271  0.6876359746934408  0.37020685231948347  1.0000
  H   H25       1.0  0.16183639823482698  0.7316845571323565  0.4023255211535741  1.0000
  H   H26       1.0  0.04397708130166689  0.7982948717762639  0.33341077979538425  1.0000
  H   H27       1.0  0.9791980283527584  0.675830705582366  0.17728551630989742  1.0000
  Zn  Zn1       1.0  0.7599480899978442  0.42035517905979186  0.5678245735192502  1.0000
  Zn  Zn2       1.0  0.9124898809398324  0.4200982395752113  0.5677936615780974  1.0000
  C   C42       1.0  0.836180158537595  0.4149989718326953  0.8050112094576042  1.0000
  C   C43       1.0  0.836259478286483  0.42545608259302936  0.3306071533429473  1.0000
  C   C44       1.0  0.8362422409492705  0.6574212177060229  0.5627165339201436  1.0000
  C   C45       1.0  0.8361973436623766  0.18303227648310916  0.572901897589523  1.0000
  O   O4        1.0  0.8941391193617201  0.42707850544169434  0.37898363102074173  1.0000
  O   O5        1.0  0.8940762071802902  0.41318055821990957  0.7566108961317008  1.0000
  O   O6        1.0  0.8941255589155845  0.6089395886153912  0.5609562319878463  1.0000
  O   O7        1.0  0.894089715591599  0.23131948444645697  0.574638197800234  1.0000
  O   O8        1.0  0.7783482032910524  0.6091339342776425  0.560980037300832  1.0000
  O   O9        1.0  0.7782988517131632  0.4133764642078494  0.7566346327392889  1.0000
  O   O10       1.0  0.7783617642006191  0.42727436653118755  0.3790058061562085  1.0000
  O   O11       1.0  0.7783123604102992  0.2315153362248021  0.574660470303781  1.0000
