data_image0
_chemical_formula_structural       NC8NC6H8C8H10C9H8Zn2C4O8
_chemical_formula_sum              "N2 C35 H26 Zn2 O8"
_cell_length_a       17.457602349358154
_cell_length_b       9.275653711864159
_cell_length_c       9.275155815604963
_cell_angle_alpha    86.23881260367573
_cell_angle_beta     93.22066324705655
_cell_angle_gamma    91.13236207428555

_space_group_name_H-M_alt    "P 1"
_space_group_IT_number       1

loop_
  _space_group_symop_operation_xyz
  'x, y, z'

loop_
  _atom_site_type_symbol
  _atom_site_label
  _atom_site_symmetry_multiplicity
  _atom_site_fract_x
  _atom_site_fract_y
  _atom_site_fract_z
  _atom_site_occupancy
  N   N1        1.0  0.7092421952346277  0.5991725004224184  0.47964650618097804  1.0000
  C   C1        1.0  0.6483844253170566  0.5480954515750627  0.467722447327752  1.0000
  C   C2        1.0  0.5726747790177906  0.48456203823670124  0.452899528257577  1.0000
  C   C3        1.0  0.5141923009092814  0.5298678217145573  0.536167471461164  1.0000
  C   C4        1.0  0.43991103649162483  0.46869150975986845  0.5220330802023891  1.0000
  C   C5        1.0  0.37784110751696603  0.516530066415225  0.6102166023256317  1.0000
  C   C6        1.0  0.30298752715321586  0.5364859337452546  0.5483678175747575  1.0000
  C   C7        1.0  0.24450647528958394  0.5815886237353154  0.6317550458882052  1.0000
  C   C8        1.0  0.1682032665639871  0.6021953818235823  0.567448647047138  1.0000
  N   N2        1.0  0.1068684397537522  0.6187561357864033  0.5157464507219416  1.0000
  C   C9        1.0  0.26038732086325117  0.6070102655528327  0.7775563169006823  1.0000
  C   C10       1.0  0.3344554153149996  0.5874899182828206  0.8398365653205813  1.0000
  C   C11       1.0  0.3929255127384916  0.5425915307849508  0.756958013202677  1.0000
  C   C12       1.0  0.4253995006195665  0.36144358031011814  0.42303796437677055  1.0000
  C   C13       1.0  0.4838701453634707  0.3164510050443241  0.3402149218451558  1.0000
  C   C14       1.0  0.5573680114577252  0.3777573985867517  0.3549601697884497  1.0000
  H   H1        1.0  0.5263550175517192  0.613976705072691  0.6103642017028326  1.0000
  H   H2        1.0  0.29035574665039454  0.5188769896881655  0.43506195283414767  1.0000
  H   H3        1.0  0.21556635738181412  0.6418605935358668  0.8429653902844276  1.0000
  H   H4        1.0  0.3465633498648673  0.6068241218154502  0.9527327841507277  1.0000
  H   H5        1.0  0.44966332433794876  0.5264004392264972  0.8080967435906197  1.0000
  H   H6        1.0  0.36913155467682457  0.3110206696849225  0.4110755986150525  1.0000
  H   H7        1.0  0.4722105883395109  0.2335696514837322  0.2646912832088  1.0000
  H   H8        1.0  0.602195778747982  0.34194674242748646  0.2901158753398876  1.0000
  C   C15       1.0  0.9102079532219352  0.18566960418112344  0.4965469340718731  1.0000
  C   C16       1.0  0.8917801469001951  0.2670611327835113  0.36633242400516886  1.0000
  C   C17       1.0  0.8664527765020977  0.19952791870335185  0.24106945507042357  1.0000
  C   C18       1.0  0.8606913087302178  0.0486900947128168  0.2451516225611603  1.0000
  C   C19       1.0  0.8799379855420607  0.9661275141168663  0.37266288747122744  1.0000
  C   C20       1.0  0.9059101034554418  0.03224834244266162  0.49885909647078064  1.0000
  C   C21       1.0  0.8480321879875226  0.28822633524992497  0.1020702578295305  1.0000
  C   C22       1.0  0.9194986901339047  0.31278646684276246  0.015809940712594898  1.0000
  H   H9        1.0  0.9805096787146568  0.45539608786066255  0.7026980483497607  1.0000
  H   H10       1.0  0.8954410760524942  0.3840266895928235  0.36278182202953557  1.0000
  H   H11       1.0  0.8420088773833777  0.9947150833527176  0.1489174332083527  1.0000
  H   H12       1.0  0.8763870755214427  0.8494739336594863  0.3714607310298028  1.0000
  H   H13       1.0  0.9139088695071577  0.7355816139529626  0.737258259918889  1.0000
  H   H14       1.0  0.8030981143097634  0.23259322713715336  0.03531792689765023  1.0000
  H   H15       1.0  0.8248311563581612  0.39446702024907904  0.1255099182157311  1.0000
  H   H16       1.0  0.9644056502331868  0.37170702104604625  0.0793907056269232  1.0000
  H   H17       1.0  0.9424310744989504  0.20775404762614857  0.9882347508353632  1.0000
  H   H18       1.0  0.9046988241603177  0.37825041092445416  0.9138723323101573  1.0000
  C   C23       1.0  0.9066717428783077  0.6052462218658585  0.07433421448841848  1.0000
  C   C24       1.0  0.8462935718619922  0.6725269877737808  0.13689163803179438  1.0000
  C   C25       1.0  0.7910058566854042  0.7496408152386007  0.05084215725874165  1.0000
  C   C26       1.0  0.7950700311858695  0.7610951266852282  0.9006652562850492  1.0000
  C   C27       1.0  0.8539081542332144  0.6929638503899506  0.8362571769005683  1.0000
  C   C28       1.0  0.9094463059457518  0.6126717156219915  0.9210717998945763  1.0000
  C   C29       1.0  0.7382143022653402  0.8415002172807664  0.8121715492304462  1.0000
  C   C30       1.0  0.6906078533168637  0.9088286214136401  0.7380437281863563  1.0000
  C   C31       1.0  0.6328459842266005  0.9905202808835784  0.6480907204242539  1.0000
  H   H19       1.0  0.08534914236072312  0.4977183269138856  0.2031427003895581  1.0000
  H   H20       1.0  0.8428668243302343  0.6683614746854922  0.25335931149313873  1.0000
  H   H21       1.0  0.7454538458898601  0.8015894704956483  0.10169252700740095  1.0000
  H   H22       1.0  0.8552913670275056  0.6998118467879959  0.7192580977855996  1.0000
  H   H23       1.0  0.028696686988028967  0.5350482743913236  0.6580495275981817  1.0000
  H   H24       1.0  0.6484161644314038  0.9954297384995894  0.5335185484093548  1.0000
  H   H25       1.0  0.5759629994371772  0.9363758235777907  0.657788820706033  1.0000
  H   H26       1.0  0.630339170980598  0.10172846886208166  0.6847231526563089  1.0000
  Zn  Zn1       1.0  0.8239885871367927  0.6048201219836583  0.49007248408583726  1.0000
  Zn  Zn2       1.0  0.992122132277811  0.6130967993426601  0.505332244018982  1.0000
  C   C32       1.0  0.9089493067070321  0.6055256402115687  0.7610044625447319  1.0000
  C   C33       1.0  0.9071632399509925  0.6123931914989179  0.23440057866787353  1.0000
  C   C34       1.0  0.9066997200383613  0.8721763923787615  0.4926766038733761  1.0000
  C   C35       1.0  0.9094127782913426  0.34574070534619133  0.5027285042659524  1.0000
  O   O1        1.0  0.9711340269296401  0.6179264471116438  0.293911294902951  1.0000
  O   O2        1.0  0.9725879943056488  0.6062731001366539  0.7130751330246495  1.0000
  O   O3        1.0  0.970770569400253  0.8215969255755589  0.4963984147104108  1.0000
  O   O4        1.0  0.9729513940558814  0.40260262821203874  0.510587899939756  1.0000
  O   O5        1.0  0.843159267982962  0.8153142902913585  0.4848168229500774  1.0000
  O   O6        1.0  0.8449766838409178  0.5999921960150665  0.7014934691226065  1.0000
  O   O7        1.0  0.8435227110911079  0.6116454775605416  0.28232789751165943  1.0000
  O   O8        1.0  0.8453400786207439  0.39632164929871583  0.49900461061091184  1.0000
