data_image0
_chemical_formula_structural       NC8NC6H8C6OCH8C6SCH8Zn2C4O8
_chemical_formula_sum              "N2 C32 H24 O9 S1 Zn2"
_cell_length_a       17.457602349358154
_cell_length_b       9.273888216677433
_cell_length_c       10.302812801239593
_cell_angle_alpha    85.76054612307921
_cell_angle_beta     92.87590592568559
_cell_angle_gamma    91.10627454168798

_space_group_name_H-M_alt    "P 1"
_space_group_IT_number       1

loop_
  _space_group_symop_operation_xyz
  'x, y, z'

loop_
  _atom_site_type_symbol
  _atom_site_label
  _atom_site_symmetry_multiplicity
  _atom_site_fract_x
  _atom_site_fract_y
  _atom_site_fract_z
  _atom_site_occupancy
  N   N1        1.0  0.7138456834637429  0.6127650052175967  0.6313108904253377  1.0000
  C   C1        1.0  0.6530389504461873  0.5617843195595249  0.6205602864154436  1.0000
  C   C2        1.0  0.5773927577941819  0.49837069000289974  0.6071960911816487  1.0000
  C   C3        1.0  0.5186269616422508  0.542953422501445  0.682191065689256  1.0000
  C   C4        1.0  0.4444063428620657  0.48189123471045964  0.6694474904408707  1.0000
  C   C5        1.0  0.38203640392944527  0.5289640334986527  0.7488696277301454  1.0000
  C   C6        1.0  0.30738068108088246  0.5494655905077359  0.6931792586188088  1.0000
  C   C7        1.0  0.248615968208734  0.5938441505700152  0.7682815992578202  1.0000
  C   C8        1.0  0.17251851238065247  0.6150182589085774  0.7103782901184608  1.0000
  N   N2        1.0  0.11134911207585431  0.6320351600317691  0.6638241613695708  1.0000
  C   C9        1.0  0.2640133796595404  0.6179910591352695  0.8995833982982915  1.0000
  C   C10       1.0  0.3378821014262998  0.5979213079246181  0.9556624142383532  1.0000
  C   C11       1.0  0.39663414610292447  0.5537426216362209  0.8810181927187425  1.0000
  C   C12       1.0  0.4302441664309875  0.37549432742873307  0.5802744332754193  1.0000
  C   C13       1.0  0.4889965987528385  0.33122095133326257  0.5056801749007023  1.0000
  C   C14       1.0  0.5624317882556092  0.39240788381758396  0.5189738650262428  1.0000
  H   H1        1.0  0.5305269590867444  0.6264250656460699  0.7490271134674609  1.0000
  H   H2        1.0  0.2951240856080289  0.5328476196100899  0.5911418425358044  1.0000
  H   H3        1.0  0.21897003603043272  0.6522732934103146  0.9584936595166902  1.0000
  H   H4        1.0  0.34961578751499056  0.6162684090626702  0.05733137542523071  1.0000
  H   H5        1.0  0.4532082896625712  0.537100384601156  0.9270650084056595  1.0000
  H   H6        1.0  0.3740272293034754  0.3251682212942353  0.5694894984819323  1.0000
  H   H7        1.0  0.4776038181519961  0.24898867394872237  0.4376495433988683  1.0000
  H   H8        1.0  0.6074803115622053  0.357160213074009  0.46057195030038334  1.0000
  C   C15       1.0  0.9148531487302953  0.1990473044991128  0.6464256169640672  1.0000
  C   C16       1.0  0.896942258974282  0.28144180268329455  0.5290001063073457  1.0000
  C   C17       1.0  0.8725062018188047  0.21553255393001236  0.4161342847472364  1.0000
  C   C18       1.0  0.8658391858403908  0.06422846671045714  0.42026544987924064  1.0000
  C   C19       1.0  0.8845527032831518  0.9806777741673967  0.5352593136043415  1.0000
  C   C20       1.0  0.9103490188331969  0.045742088072753706  0.6487212341549369  1.0000
  O   O1        1.0  0.8550601794560978  0.30411668925763746  0.30256363971923306  1.0000
  C   C21       1.0  0.8294610497418134  0.2519510842064713  0.18099466208121662  1.0000
  H   H9        1.0  0.9211000477046111  0.27603472518909594  0.9664222169841409  1.0000
  H   H10       1.0  0.9001817159985328  0.39847441403758177  0.5254169409165337  1.0000
  H   H11       1.0  0.8469074584872082  0.009873743705520308  0.3347520174097567  1.0000
  H   H12       1.0  0.8805670565577455  0.8640161399871433  0.5345010128291388  1.0000
  H   H13       1.0  0.9177703925346994  0.747171213734408  0.8636146012947041  1.0000
  H   H14       1.0  0.7744208277790288  0.19115883409146894  0.19145508624964425  1.0000
  H   H15       1.0  0.8734960806718456  0.1814775043658155  0.14566766982566648  1.0000
  H   H16       1.0  0.8201327461417957  0.3451842786558146  0.10845472345617503  1.0000
  C   C22       1.0  0.9126011151697677  0.6223947068573048  0.26632496585338883  1.0000
  C   C23       1.0  0.8859691837429908  0.764908554662958  0.25340170987325816  1.0000
  C   C24       1.0  0.8725213643347217  0.8355967250085762  0.1299791698928292  1.0000
  C   C25       1.0  0.8859691154000126  0.7649083999756512  0.018250534117830505  1.0000
  C   C26       1.0  0.9126010654703118  0.6223946947300596  0.02882186538725784  1.0000
  C   C27       1.0  0.9257633269274587  0.5518204648746345  0.15338860231461293  1.0000
  S   S1        1.0  0.8386520935736803  0.017793618263933997  0.11497582812920948  1.0000
  C   C28       1.0  0.7380284540173389  0.9625332245948932  0.11009910554771718  1.0000
  H   H17       1.0  0.9226089992423804  0.5686682823329803  0.5985070989980603  1.0000
  H   H18       1.0  0.8753899310470871  0.8215154144521132  0.3388351187633136  1.0000
  H   H19       1.0  0.8753897785886858  0.8215151993360492  0.9234847926576704  1.0000
  H   H20       1.0  0.9462918581560371  0.4418829857360114  0.16244930000109115  1.0000
  H   H21       1.0  0.9226075750635084  0.5686674646336056  0.7054913946402239  1.0000
  H   H22       1.0  0.7247686250498413  0.8977398327587718  0.025166423297971363  1.0000
  H   H23       1.0  0.7247689458060326  0.8977413056508105  0.20140114615145824  1.0000
  H   H24       1.0  0.7020000807690293  0.06031956752781742  0.10052879496365752  1.0000
  Zn  Zn1       1.0  0.8285566070126628  0.6183220895334027  0.6407010037126089  1.0000
  Zn  Zn2       1.0  0.9966382371546104  0.6264662557020109  0.6544446452042485  1.0000
  C   C29       1.0  0.9126299176805872  0.6166513714340396  0.8846779264781259  1.0000
  C   C30       1.0  0.9125667522563637  0.628138881746823  0.41046800487688295  1.0000
  C   C31       1.0  0.9111964612890253  0.8856985612457651  0.6431134513874781  1.0000
  C   C32       1.0  0.9140001605074154  0.35908995708339153  0.6520325397984383  1.0000
  O   O2        1.0  0.9763413558805334  0.633151058460996  0.4640593488041551  1.0000
  O   O3        1.0  0.9764253879755189  0.6178193408207926  0.8415173117601245  1.0000
  O   O4        1.0  0.9752669939435469  0.8350783074961485  0.6464522227695655  1.0000
  O   O5        1.0  0.9774996925027754  0.4158920993195507  0.6591243357889893  1.0000
  O   O6        1.0  0.8476950943064777  0.8288962431382281  0.6360213084310136  1.0000
  O   O7        1.0  0.8488534791209406  0.6116390085369425  0.83108633289381  1.0000
  O   O8        1.0  0.8487694473443108  0.6269706759415679  0.45362680889828977  1.0000
  O   O9        1.0  0.8499277840182631  0.4097117064885762  0.648691893191994  1.0000
