data_image0
_chemical_formula_structural       NC10NC5H10C12ClH9C12SCH12Zn2C4O8
_chemical_formula_sum              "N2 C44 H31 Cl1 S1 Zn2 O8"
_cell_length_a       19.4436361288709
_cell_length_b       10.299768534541528
_cell_length_c       10.299780138516091
_cell_angle_alpha    85.57853540926422
_cell_angle_beta     89.6968932683751
_cell_angle_gamma    89.43641405984484

_space_group_name_H-M_alt    "P 1"
_space_group_IT_number       1

loop_
  _space_group_symop_operation_xyz
  'x, y, z'

loop_
  _atom_site_type_symbol
  _atom_site_label
  _atom_site_symmetry_multiplicity
  _atom_site_fract_x
  _atom_site_fract_y
  _atom_site_fract_z
  _atom_site_occupancy
  N   N1        1.0  0.6479870643171282  0.40888068268684763  0.5622200770468679  1.0000
  C   C1        1.0  0.5891525965500823  0.4187839392150452  0.5766039251119055  1.0000
  C   C2        1.0  0.5158251422326305  0.431134633338648  0.5945960819850015  1.0000
  C   C3        1.0  0.4736372740353276  0.3991282307581978  0.49992474830511097  1.0000
  C   C4        1.0  0.39773426179200716  0.4095669057047948  0.5052531009862178  1.0000
  C   C5        1.0  0.3579892801069752  0.38483077803151683  0.6123199267634687  1.0000
  C   C6        1.0  0.2818695771982814  0.38874595661271966  0.5993612699657983  1.0000
  C   C7        1.0  0.24131479645487092  0.44641622418986243  0.6931308080392098  1.0000
  C   C8        1.0  0.1696521610095619  0.45005279799259057  0.6825875163983884  1.0000
  C   C9        1.0  0.13754948063601183  0.3956231299468082  0.5785611826361146  1.0000
  C   C10       1.0  0.0637576130283055  0.399320929510373  0.5678626183312587  1.0000
  N   N2        1.0  0.004433956497186997  0.4022937663381878  0.5592616819348224  1.0000
  C   C11       1.0  0.17737924735809318  0.3372458245938075  0.4851748300001495  1.0000
  C   C12       1.0  0.2490583067538498  0.3335550010928736  0.4954663520470674  1.0000
  C   C13       1.0  0.3861133383697974  0.3443845786273223  0.7434072081033699  1.0000
  C   C14       1.0  0.4447833268098069  0.3875107002319562  0.7906498056078075  1.0000
  C   C15       1.0  0.4890081149752166  0.4853593259313149  0.7162901156135181  1.0000
  H   H1        1.0  0.4957328972350343  0.3700020956403316  0.40962027864988093  1.0000
  H   H2        1.0  0.37304103368449526  0.4320513288259975  0.41209967634077516  1.0000
  H   H3        1.0  0.26519113454509236  0.48971489998042417  0.773977853284032  1.0000
  H   H4        1.0  0.1393136933527343  0.49537432703505097  0.7555075206144779  1.0000
  H   H5        1.0  0.15303105383207094  0.29414283821466936  0.40466226321272625  1.0000
  H   H6        1.0  0.2787307755464419  0.2859901956626236  0.4232425450393358  1.0000
  H   H7        1.0  0.35513621520312805  0.2801754247526833  0.8076483966078085  1.0000
  H   H8        1.0  0.45992606377207124  0.35345441766734037  0.888578566565283  1.0000
  H   H9        1.0  0.45891453821184675  0.5760693272970454  0.6910435780420197  1.0000
  H   H10       1.0  0.5322964438695971  0.5109515333041248  0.7793737059644187  1.0000
  C   C16       1.0  0.8261489300115945  0.024222971743474986  0.5607392929078638  1.0000
  C   C17       1.0  0.8306887641361125  0.033666146880719776  0.42423901909514616  1.0000
  C   C18       1.0  0.8330552552271675  0.9213104918273624  0.3550800845116491  1.0000
  C   C19       1.0  0.8308201244676522  0.7983760063593016  0.4242534180993429  1.0000
  C   C20       1.0  0.826278672338094  0.786941332066661  0.5607536432939636  1.0000
  C   C21       1.0  0.8239690140055459  0.9004212333245003  0.628232174305788  1.0000
  C   C22       1.0  0.8378589357624773  0.9323542348103558  0.21067416644690226  1.0000
  C   C23       1.0  0.7987361026792994  0.026596199740581257  0.1365385200360385  1.0000
  C   C24       1.0  0.8033187443070926  0.0367939602913856  0.0006270419046652245  1.0000
  C   C25       1.0  0.8469579228266798  0.953272636896255  0.9371599810791924  1.0000
  C   C26       1.0  0.8860695947387315  0.8593426948702645  0.009784569713801487  1.0000
  C   C27       1.0  0.8816090927323275  0.848750430161826  0.1457096767241164  1.0000
  Cl  Cl1       1.0  0.8526308929187805  0.9663147018344292  0.7666358094802801  1.0000
  H   H11       1.0  0.8243837398465689  0.34807905867870215  0.6127496565550365  1.0000
  H   H12       1.0  0.8333443037181613  0.12861451583030692  0.3714868361301549  1.0000
  H   H13       1.0  0.831680767258603  0.7115113279063449  0.37130258661547727  1.0000
  H   H14       1.0  0.8204660443991678  0.8923680825577042  0.733535857840217  1.0000
  H   H15       1.0  0.8245755510511111  0.45512993537134244  0.6127712924167953  1.0000
  H   H16       1.0  0.7639573416832377  0.09122804061994771  0.18356846654964754  1.0000
  H   H17       1.0  0.7727855107695407  0.10945622998759362  0.9447712980970179  1.0000
  H   H18       1.0  0.9200814370880196  0.7946779328309693  0.9610715886979218  1.0000
  H   H19       1.0  0.9130152031078381  0.7763649163376715  0.20006394020737428  1.0000
  C   C28       1.0  0.8262414237553521  0.4054703602806888  0.17939414047917676  1.0000
  C   C29       1.0  0.7608357244325207  0.3486680198201486  0.1834302190302739  1.0000
  C   C30       1.0  0.7276669460325482  0.32000058955738586  0.06832864346928647  1.0000
  C   C31       1.0  0.7607794543173169  0.3488944964871617  0.9481267941274408  1.0000
  C   C32       1.0  0.826186178666031  0.4056939945499014  0.9420988687147385  1.0000
  C   C33       1.0  0.8585508737376395  0.43366464553518314  0.0582585747107236  1.0000
  C   C34       1.0  0.6584722605098374  0.25992351932591085  0.0736612934678027  1.0000
  C   C35       1.0  0.6075413469482973  0.3025252745612674  0.9831283675566174  1.0000
  C   C36       1.0  0.5424303803316994  0.24595035905576815  0.9883838403129617  1.0000
  C   C37       1.0  0.5273007587058343  0.14642108509334983  0.08407011353323801  1.0000
  C   C38       1.0  0.5776194160581773  0.10303171866605877  0.17420245422786862  1.0000
  C   C39       1.0  0.642772904019716  0.15943242020035497  0.1693090329647131  1.0000
  S   S1        1.0  0.44378262681693853  0.07369396939618467  0.09036315343250823  1.0000
  C   C40       1.0  0.4085311027341322  0.18855956209649283  0.19938700118780495  1.0000
  H   H20       1.0  0.8511740109807275  0.42706694561808844  0.5053131350869652  1.0000
  H   H21       1.0  0.7351281794384814  0.3282209599725292  0.2761925021639964  1.0000
  H   H22       1.0  0.7358343172736039  0.3253542925153401  0.859261131323826  1.0000
  H   H23       1.0  0.9090087464038145  0.47748444676610924  0.05437653850441926  1.0000
  H   H24       1.0  0.8510939091706586  0.42739588659203376  0.6123442377957322  1.0000
  H   H25       1.0  0.6177820488507559  0.38070310235869437  0.909366709220425  1.0000
  H   H26       1.0  0.5036831503697218  0.27999934238928637  0.9183747972526443  1.0000
  H   H27       1.0  0.5663276150403421  0.025569282646764394  0.24809771489832808  1.0000
  H   H28       1.0  0.6811497364956776  0.12333931268672615  0.23922029342358297  1.0000
  H   H29       1.0  0.4376137652652233  0.18199208549856394  0.2921596161506341  1.0000
  H   H30       1.0  0.3539455919703745  0.16443975403216893  0.22061187370250065  1.0000
  H   H31       1.0  0.41120682588906443  0.2892311686440563  0.15277554436466967  1.0000
  Zn  Zn1       1.0  0.750849937855943  0.4069763717898453  0.5613738598698235  1.0000
  Zn  Zn2       1.0  0.9015710718954953  0.4041874728150474  0.5601185796275563  1.0000
  C   C41       1.0  0.826194199962684  0.4004781308551584  0.7979312362866311  1.0000
  C   C42       1.0  0.8262284559283372  0.4106873219317131  0.32356131699497004  1.0000
  C   C43       1.0  0.8262509772034118  0.6427699100838604  0.5555760502876927  1.0000
  C   C44       1.0  0.8261716269866073  0.1683939833917043  0.565916572628421  1.0000
  O   O1        1.0  0.8834219877216393  0.4113741436215886  0.3714687660001616  1.0000
  O   O2        1.0  0.8833945213161908  0.3976736195541599  0.7490706847744776  1.0000
  O   O3        1.0  0.8834395985034571  0.5933273101423888  0.5533671638244924  1.0000
  O   O4        1.0  0.8833768591120937  0.2157204632465799  0.5671721900082265  1.0000
  O   O5        1.0  0.7690440992056196  0.5954433823114391  0.5543202499106883  1.0000
  O   O6        1.0  0.7689990222856298  0.39979125198764287  0.7500237016476969  1.0000
  O   O7        1.0  0.7690264888422316  0.41349173034103237  0.3724202215392771  1.0000
  O   O8        1.0  0.7689813602212401  0.21783804070593013  0.5681237429107975  1.0000
