data_image0
_chemical_formula_structural       NC8NC6H8C7NH3C6FH3Zn2C4O8
_chemical_formula_sum              "N3 C31 H14 F1 Zn2 O8"
_cell_length_a       17.457602349358154
_cell_length_b       10.302819778424748
_cell_length_c       9.275646106892307
_cell_angle_alpha    84.95237356290208
_cell_angle_beta     92.91404810424501
_cell_angle_gamma    91.68806980205999

_space_group_name_H-M_alt    "P 1"
_space_group_IT_number       1

loop_
  _space_group_symop_operation_xyz
  'x, y, z'

loop_
  _atom_site_type_symbol
  _atom_site_label
  _atom_site_symmetry_multiplicity
  _atom_site_fract_x
  _atom_site_fract_y
  _atom_site_fract_z
  _atom_site_occupancy
  N   N1        1.0  0.7221033678131344  0.46700625609457946  0.4735146572121469  1.0000
  C   C1        1.0  0.6610229490479463  0.4212082994160813  0.46171646147230766  1.0000
  C   C2        1.0  0.5850363273052755  0.36424125232125015  0.4470501107958104  1.0000
  C   C3        1.0  0.526525236581803  0.4035932030641604  0.5302905239303495  1.0000
  C   C4        1.0  0.4519768414655154  0.34873722018915515  0.5163070527180722  1.0000
  C   C5        1.0  0.38987588982008226  0.39028454433638093  0.6044618072401775  1.0000
  C   C6        1.0  0.3153161685631009  0.40934095532430675  0.5424868911898852  1.0000
  C   C7        1.0  0.2568051002750946  0.44850788817094067  0.6258472827808703  1.0000
  C   C8        1.0  0.18080670492663845  0.4681935532030707  0.5614101291765945  1.0000
  N   N2        1.0  0.1197169116091481  0.4840144485604496  0.5096028255510929  1.0000
  C   C9        1.0  0.2723617096150669  0.4688560618152002  0.7717477509939574  1.0000
  C   C10       1.0  0.3461368176214334  0.4501843900935161  0.8341534391161789  1.0000
  C   C11       1.0  0.40463638816964625  0.41119258226398164  0.7513017536876714  1.0000
  C   C12       1.0  0.43722784737553855  0.2538673338091591  0.4174906380157367  1.0000
  C   C13       1.0  0.49572731361700206  0.21478971773899433  0.33469478394278895  1.0000
  C   C14       1.0  0.5694910718504633  0.26975218590072697  0.34928946298346725  1.0000
  H   H1        1.0  0.5388848788975357  0.47805479889615604  0.6043431279788454  1.0000
  H   H2        1.0  0.3029472775184883  0.3954616073373431  0.42909806761056646  1.0000
  H   H3        1.0  0.2275145147130454  0.4991028176886638  0.837137218128165  1.0000
  H   H4        1.0  0.3579919102396655  0.4656248901149455  0.9471274253841447  1.0000
  H   H5        1.0  0.4611327987390782  0.39571450584031315  0.8025439286127186  1.0000
  H   H6        1.0  0.3807406981782789  0.20865924712099576  0.40565230242474914  1.0000
  H   H7        1.0  0.48388120049942646  0.141456996489294  0.25931037967436227  1.0000
  H   H8        1.0  0.6143384303458033  0.2386305594181499  0.2844680541309092  1.0000
  C   C15       1.0  0.920913801928504  0.09425740277189698  0.49156528629494556  1.0000
  C   C16       1.0  0.8761576994256469  0.08123218785983123  0.6138925251381092  1.0000
  C   C17       1.0  0.8538910974147467  0.9576494395458678  0.674751481778529  1.0000
  C   C18       1.0  0.87615776134811  0.8459311806525888  0.6138925354882889  1.0000
  C   C19       1.0  0.9209138145838633  0.8567534300842301  0.491565330342031  1.0000
  C   C20       1.0  0.9430580394246011  0.9814050395293912  0.43104086576616885  1.0000
  C   C21       1.0  0.8080096054528972  0.9454257962538001  0.8001548853030354  1.0000
  N   N3        1.0  0.771135899370212  0.9356020181365731  0.9009380836050225  1.0000
  H   H9        1.0  0.8585063914832404  0.16695386270384693  0.6621367919158199  1.0000
  H   H10       1.0  0.8585064872309569  0.7508042630039007  0.6621367663178064  1.0000
  H   H11       1.0  0.9775723641774554  0.9906001800430049  0.336706506355064  1.0000
  C   C22       1.0  0.9208245149242003  0.47956517182269964  0.06771676781007384  1.0000
  C   C23       1.0  0.9910736190434372  0.4961392819986872  0.14615356597525264  1.0000
  C   C24       1.0  0.06037172734857533  0.5004822007075332  0.07699737860943734  1.0000
  C   C25       1.0  0.06063776138761412  0.4881969736458009  0.9286452688897953  1.0000
  C   C26       1.0  0.9915909131640873  0.4738390162702312  0.8483856309338311  1.0000
  C   C27       1.0  0.921003069351513  0.47144572466451135  0.9154138560923405  1.0000
  F   F1        1.0  0.12755977024031692  0.5150776180842931  0.15453070987159379  1.0000
  H   H12       1.0  0.7429197980638038  0.36647806112334913  0.16472269078279406  1.0000
  H   H13       1.0  0.11443913489943447  0.4910414953675749  0.8752130231619819  1.0000
  H   H14       1.0  0.8005614155049359  0.40062084791466396  0.6296365799175078  1.0000
  Zn  Zn1       1.0  0.8368460494152783  0.4719108915764875  0.48393725674943033  1.0000
  Zn  Zn2       1.0  0.0049742182463932165  0.479099055309305  0.49919204286839935  1.0000
  C   C28       1.0  0.9209676299116258  0.46780828022734305  0.7551808037755339  1.0000
  C   C29       1.0  0.9208544737342876  0.48320338191772255  0.22794880408879692  1.0000
  C   C30       1.0  0.9209086492353905  0.7126804092399838  0.48581335456460567  1.0000
  C   C31       1.0  0.9209133970563208  0.23832968988676392  0.4973163250451457  1.0000
  O   O1        1.0  0.9846682920486478  0.48714660511650054  0.28751325103240066  1.0000
  O   O2        1.0  0.9847592014315227  0.46931973153384704  0.7071939710367151  1.0000
  O   O3        1.0  0.9847107140004671  0.6670570213942778  0.4896777719384724  1.0000
  O   O4        1.0  0.9847167220861497  0.28940932312720385  0.5050293367042558  1.0000
  O   O5        1.0  0.8571034882016274  0.6616006213071073  0.4780999577002722  1.0000
  O   O6        1.0  0.857151975612991  0.46386489201351283  0.695616079839793  1.0000
  O   O7        1.0  0.8570610659155634  0.48169173697749157  0.2759336245192996  1.0000
  O   O8        1.0  0.8571094959727256  0.28395444466557834  0.49344981840424107  1.0000
