data_image0
_chemical_formula_structural       NC11NC3H8C13OH12C16H9Zn2C4O8
_chemical_formula_sum              "N2 C47 H29 O9 Zn2"
_cell_length_a       17.807433833752565
_cell_length_b       10.299150109392551
_cell_length_c       10.299151387937775
_cell_angle_alpha    85.56522917257966
_cell_angle_beta     88.51281441211556
_cell_angle_gamma    90.66566965777596

_space_group_name_H-M_alt    "P 1"
_space_group_IT_number       1

loop_
  _space_group_symop_operation_xyz
  'x, y, z'

loop_
  _atom_site_type_symbol
  _atom_site_label
  _atom_site_symmetry_multiplicity
  _atom_site_fract_x
  _atom_site_fract_y
  _atom_site_fract_z
  _atom_site_occupancy
  N   N1        1.0  0.7073115316365408  0.437941078018661  0.5341585331270076  1.0000
  C   C1        1.0  0.6564909856743614  0.40324092002149126  0.6007329765737148  1.0000
  C   C2        1.0  0.5932651013003469  0.3600767824395262  0.6835430889255072  1.0000
  C   C3        1.0  0.6049901593379476  0.296575585105072  0.8062836435330096  1.0000
  C   C4        1.0  0.5436716143558163  0.2550903467277972  0.8868092454622871  1.0000
  C   C5        1.0  0.4704736494997998  0.27679329443608647  0.8452351976905697  1.0000
  C   C6        1.0  0.45777182141454353  0.3404488532530492  0.7220343915692824  1.0000
  C   C7        1.0  0.3800057046131733  0.3634808015630428  0.6776792291254501  1.0000
  C   C8        1.0  0.3612398838946966  0.34655064777413275  0.5481041256958117  1.0000
  C   C9        1.0  0.28801198867223743  0.36821484538208976  0.5064860194335481  1.0000
  C   C10       1.0  0.2326068739337628  0.40712738872227955  0.5936226308209234  1.0000
  C   C11       1.0  0.1572422889389243  0.4294495039801612  0.5506430006920202  1.0000
  N   N2        1.0  0.0966545359998994  0.44739482626891136  0.5160905061288574  1.0000
  C   C12       1.0  0.2506811520969052  0.4242679024982814  0.7226665264073922  1.0000
  C   C13       1.0  0.32385626323463895  0.4025688841009738  0.7645400748575519  1.0000
  C   C14       1.0  0.5199476772746122  0.38192953354801307  0.6415252070860553  1.0000
  H   H1        1.0  0.6614554101881496  0.27917443876605236  0.8396552449522956  1.0000
  H   H2        1.0  0.5528681796271089  0.20567592109266286  0.9815625986033095  1.0000
  H   H3        1.0  0.42383362794695056  0.24226250973729346  0.9086862872416537  1.0000
  H   H4        1.0  0.40293185943004683  0.31487647032056  0.47939813730942404  1.0000
  H   H5        1.0  0.2745843739631307  0.35428935164513886  0.4064558496134958  1.0000
  H   H6        1.0  0.2082726779221751  0.45471874016609454  0.7908581611844071  1.0000
  H   H7        1.0  0.3367551796616515  0.4180398180615299  0.8643869629396435  1.0000
  H   H8        1.0  0.5114493104634066  0.43270651209430344  0.5470057065605605  1.0000
  C   C15       1.0  0.9020574140536048  0.06127017405707313  0.5252651704482028  1.0000
  C   C16       1.0  0.9006579514365323  0.049490927373538884  0.6621410523696682  1.0000
  C   C17       1.0  0.8998830561863065  0.926382299254785  0.7312793671125372  1.0000
  C   C18       1.0  0.9005131480526213  0.8142319101219117  0.6617843766589244  1.0000
  C   C19       1.0  0.9019158333575339  0.8240558660752764  0.524994744286398  1.0000
  C   C20       1.0  0.9026818354024011  0.9480356083338322  0.45753443331326715  1.0000
  C   C21       1.0  0.8983960434602172  0.9149027446360424  0.8759887115773013  1.0000
  C   C22       1.0  0.8521929257527482  0.8209299249153674  0.9461543547648112  1.0000
  C   C23       1.0  0.850768758655355  0.8102084804419653  0.0823268583241572  1.0000
  C   C24       1.0  0.8960147097611351  0.8923136165327474  0.15077254832392714  1.0000
  C   C25       1.0  0.941499004589693  0.9872228936138588  0.08128283582905182  1.0000
  C   C26       1.0  0.9429406105878333  0.9981205584332814  0.945109234276232  1.0000
  C   C27       1.0  0.8929047238219894  0.8831085568763063  0.2970033658870047  1.0000
  O   O1        1.0  0.8367495201988024  0.9649377745293679  0.3398500548822009  1.0000
  H   H9        1.0  0.9042108856467163  0.2907850389258655  0.26692817926047163  1.0000
  H   H10       1.0  0.899125896489072  0.13624860324875088  0.7152208080605695  1.0000
  H   H11       1.0  0.9009357400221271  0.7191409974439656  0.7145983609473692  1.0000
  H   H12       1.0  0.9037616427429096  0.9563292764673105  0.35202459544567644  1.0000
  H   H13       1.0  0.9024047900834801  0.5003578082934937  0.4723830007587233  1.0000
  H   H14       1.0  0.816270941788719  0.7570280927399058  0.8957125980489369  1.0000
  H   H15       1.0  0.8142178032493294  0.738011619512596  0.13439870157421407  1.0000
  H   H16       1.0  0.9760370848094074  0.05264439320022052  0.13253502167554976  1.0000
  H   H17       1.0  0.9795166450246626  0.07076378581618384  0.8938428716871364  1.0000
  H   H18       1.0  0.9481607503291426  0.9122955852670648  0.3346091898313944  1.0000
  H   H19       1.0  0.8806916108555233  0.7808059188591722  0.335382774328168  1.0000
  H   H20       1.0  0.8370167290470726  0.9553058843851433  0.4364644827379587  1.0000
  C   C28       1.0  0.9020301944882302  0.4424953398758096  0.14375700711854322  1.0000
  C   C29       1.0  0.8295343293513522  0.49469236987955  0.1421932297957771  1.0000
  C   C30       1.0  0.7927325872433527  0.5213302088551819  0.024246424944806666  1.0000
  C   C31       1.0  0.8294035695316387  0.4950668189958658  0.9068868265532689  1.0000
  C   C32       1.0  0.9019430416124202  0.44283070029153926  0.9065029056491597  1.0000
  C   C33       1.0  0.9378105205917155  0.4168685011895059  0.0253851586706979  1.0000
  C   C34       1.0  0.7160407417882746  0.5765486560885673  0.023637545387174  1.0000
  C   C35       1.0  0.6969401937513229  0.6759051023354272  0.9291829057661953  1.0000
  C   C36       1.0  0.6247454543702423  0.7278371890421211  0.9287386886886644  1.0000
  C   C37       1.0  0.5707041757630188  0.6811983487927091  0.022491027028288535  1.0000
  C   C38       1.0  0.5891237342729538  0.5823837503485041  0.11681497341398717  1.0000
  C   C39       1.0  0.6612969366503268  0.5303635409200671  0.11750978671496837  1.0000
  C   C40       1.0  0.4963900348404844  0.7347088275308487  0.02190520659227291  1.0000
  C   C41       1.0  0.4341529904486426  0.7795230427779134  0.021414505147184563  1.0000
  C   C42       1.0  0.3612740586262938  0.8320000896734888  0.02083989737868164  1.0000
  C   C43       1.0  0.2990470718189052  0.8768073006034067  0.02034938166440114  1.0000
  H   H21       1.0  0.9298992461587349  0.4223551688658884  0.47183971042081646  1.0000
  H   H22       1.0  0.801926415595293  0.5164181663817682  0.2327701398851787  1.0000
  H   H23       1.0  0.8008934245799378  0.5137550971679512  0.8158299525546043  1.0000
  H   H24       1.0  0.9937275360546607  0.3766040143216012  0.025875909499490923  1.0000
  H   H25       1.0  0.7381187188178293  0.7146099603822035  0.8567118469409576  1.0000
  H   H26       1.0  0.6111448022893146  0.8045622599696551  0.8554894310201437  1.0000
  H   H27       1.0  0.5476534982022578  0.5453131361219157  0.189630381778346  1.0000
  H   H28       1.0  0.6740099137945318  0.4528552191353168  0.19040749769450893  1.0000
  H   H29       1.0  0.2444066396979727  0.916151668875107  0.01991867576897333  1.0000
  Zn  Zn1       1.0  0.8196675120126738  0.44066575394018964  0.5289519766560722  1.0000
  Zn  Zn2       1.0  0.9842985416250022  0.44465953460455915  0.5213076524905564  1.0000
  C   C44       1.0  0.9019588072129971  0.4375932368061678  0.7623294938250889  1.0000
  C   C45       1.0  0.9020090438716716  0.4477337341505538  0.2879301787325308  1.0000
  C   C46       1.0  0.9019393188440711  0.6798708025563989  0.519870795451072  1.0000
  C   C47       1.0  0.9020284763452551  0.20545460664696114  0.5303889495076353  1.0000
  O   O2        1.0  0.9644785643393018  0.4510017398993831  0.33341503299125214  1.0000
  O   O3        1.0  0.9644404291429747  0.4373554382105388  0.7110424008997726  1.0000
  O   O4        1.0  0.9644238496696312  0.632997616734412  0.5152553251556073  1.0000
  O   O5        1.0  0.9644950876446269  0.25535956926081016  0.5292020139649178  1.0000
  O   O6        1.0  0.839470909812559  0.6299657179224687  0.5210576177835118  1.0000
  O   O7        1.0  0.8394874890007549  0.4343250997904861  0.7168446237283905  1.0000
  O   O8        1.0  0.8395256244338376  0.44797135553452816  0.33921569441643484  1.0000
  O   O9        1.0  0.8395421477266907  0.25232917564918433  0.5350027727624014  1.0000
