data_image0
_chemical_formula_structural       NC11NC3H8C12ClH9C12SCH12Zn2C4O8
_chemical_formula_sum              "N2 C43 H29 Cl1 S1 Zn2 O8"
_cell_length_a       17.807433833752565
_cell_length_b       10.299768534541528
_cell_length_c       10.299780138516091
_cell_angle_alpha    85.57853540926422
_cell_angle_beta     88.51639907153644
_cell_angle_gamma    90.7030232555817

_space_group_name_H-M_alt    "P 1"
_space_group_IT_number       1

loop_
  _space_group_symop_operation_xyz
  'x, y, z'

loop_
  _atom_site_type_symbol
  _atom_site_label
  _atom_site_symmetry_multiplicity
  _atom_site_fract_x
  _atom_site_fract_y
  _atom_site_fract_z
  _atom_site_occupancy
  N   N1        1.0  0.707794339784345  0.4380446205774985  0.534759979035144  1.0000
  C   C1        1.0  0.6569632335734491  0.40333729075179714  0.6013183148503403  1.0000
  C   C2        1.0  0.5937242130148592  0.36016423245688356  0.684108390789399  1.0000
  C   C3        1.0  0.6054299776216696  0.29664977447415475  0.8068194220198166  1.0000
  C   C4        1.0  0.5440988401345278  0.25515582210417614  0.8873257190361841  1.0000
  C   C5        1.0  0.4709074823574887  0.2768632457279614  0.8457617423683454  1.0000
  C   C6        1.0  0.4582249889426585  0.3405321216747395  0.7225905396595506  1.0000
  C   C7        1.0  0.38046587558524986  0.36356885522768567  0.6782460770509093  1.0000
  C   C8        1.0  0.36168923697744265  0.346659474493217  0.5486713920193911  1.0000
  C   C9        1.0  0.288467932901787  0.36832815774171174  0.5070633449210236  1.0000
  C   C10       1.0  0.2330803166956534  0.40722451087202743  0.5942097554989023  1.0000
  C   C11       1.0  0.1577225196003201  0.4295512626167143  0.5512404950060474  1.0000
  N   N2        1.0  0.0971402236259301  0.4475003123061368  0.5166963368631978  1.0000
  C   C12       1.0  0.25116547230507175  0.4243443141850261  0.7232533368535818  1.0000
  C   C13       1.0  0.32433398829383553  0.4026407746972531  0.7651168003413359  1.0000
  C   C14       1.0  0.5204134361888157  0.3820215138711902  0.6421006575815121  1.0000
  H   H1        1.0  0.6618899323309351  0.2792450337026571  0.840182946612602  1.0000
  H   H2        1.0  0.5532803653904715  0.20573119118545313  0.9820561368821072  1.0000
  H   H3        1.0  0.4242568542679526  0.24232574333957468  0.9091969458426061  1.0000
  H   H4        1.0  0.40336704666684503  0.31499814283573135  0.4799573137697335  1.0000
  H   H5        1.0  0.2750316491423678  0.3544187695418329  0.40703318475779793  1.0000
  H   H6        1.0  0.20877069164319637  0.4547824817867836  0.7914526397766506  1.0000
  H   H7        1.0  0.3372421413434836  0.41809550589436517  0.8649642540701786  1.0000
  H   H8        1.0  0.5119306236236981  0.43280855275237307  0.547604579375365  1.0000
  C   C15       1.0  0.902400014878882  0.06140543634819151  0.5257291332308236  1.0000
  C   C16       1.0  0.9073588621674152  0.07105293568839112  0.38903647241398004  1.0000
  C   C17       1.0  0.9099437733356099  0.9588037892414534  0.31977725175861105  1.0000
  C   C18       1.0  0.9075023466661901  0.8357687072981886  0.3890453046904172  1.0000
  C   C19       1.0  0.9025417320355711  0.8241296359810805  0.5257379854562376  1.0000
  C   C20       1.0  0.9000188991201715  0.9375055865030668  0.5933143941074125  1.0000
  C   C21       1.0  0.9151908192725647  0.9700637313563317  0.17516776552779986  1.0000
  C   C22       1.0  0.8724570652557576  0.0625448958987498  0.10269004855738294  1.0000
  C   C23       1.0  0.8774626710525807  0.0729489072887566  0.9665843693451839  1.0000
  C   C24       1.0  0.9251296157338805  0.9913916513295797  0.9012679874679671  1.0000
  C   C25       1.0  0.9678511784367189  0.8992220073608423  0.9722351196451098  1.0000
  C   C26       1.0  0.9629789853844445  0.8884289889481413  0.1083492517595086  1.0000
  Cl  Cl1       1.0  0.9313261840638151  0.004689039493373625  0.7305034093496592  1.0000
  H   H9        1.0  0.900471902920713  0.3851820774130108  0.5778143012955692  1.0000
  H   H10       1.0  0.9102595001411502  0.1661208224427333  0.3361717542130054  1.0000
  H   H11       1.0  0.9084424242226038  0.7489427637741887  0.33605800128188834  1.0000
  H   H12       1.0  0.8961926158556374  0.9292947776692214  0.6987665248779372  1.0000
  H   H13       1.0  0.9006814177279667  0.4922415869478236  0.577827808670254  1.0000
  H   H14       1.0  0.8344683282372705  0.12561144993605233  0.15119383342096682  1.0000
  H   H15       1.0  0.8441113110281835  0.1442369684929661  0.9120225488760219  1.0000
  H   H16       1.0  0.00500221250224153  0.8360880154749089  0.9220808004052107  1.0000
  H   H17       1.0  0.9972837861783534  0.8174569691623955  0.1613726015307968  1.0000
  C   C27       1.0  0.9025010455196187  0.44265698774905987  0.14438006114477164  1.0000
  C   C28       1.0  0.8310585950146496  0.3829109345853101  0.15118787236282105  1.0000
  C   C29       1.0  0.7948284371891962  0.3527506779276482  0.037491908049261946  1.0000
  C   C30       1.0  0.8309971313354597  0.38313487870463026  0.9158868320490701  1.0000
  C   C31       1.0  0.9024407014731468  0.44287813560389355  0.9070871305313386  1.0000
  C   C32       1.0  0.9377925614746603  0.47230542362546135  0.02187530035364715  1.0000
  C   C33       1.0  0.7192472883467502  0.2895593641841152  0.045756858630578774  1.0000
  C   C34       1.0  0.6636156032036322  0.3298688730435533  0.9573822595676313  1.0000
  C   C35       1.0  0.5924950883555749  0.27036350986251617  0.9653969749437552  1.0000
  C   C36       1.0  0.5759690477298235  0.17015329739113128  0.06172440431606763  1.0000
  C   C37       1.0  0.6309319672397505  0.12902862153958664  0.14972436407471498  1.0000
  C   C38       1.0  0.7020989280262017  0.18836168450654814  0.14206989824176497  1.0000
  S   S1        1.0  0.4847424410959104  0.0936672831830554  0.07155673722551881  1.0000
  C   C39       1.0  0.44623730636629055  0.20694631140466438  0.18207445786760879  1.0000
  H   H18       1.0  0.9297348362634161  0.46537571342742434  0.46924247402956526  1.0000
  H   H19       1.0  0.802978320208998  0.36130685589146205  0.2450395780237069  1.0000
  H   H20       1.0  0.8037496324624825  0.35847196956247696  0.828078282798883  1.0000
  H   H21       1.0  0.9929075454571172  0.5183961810923439  0.015854983608769798  1.0000
  H   H22       1.0  0.9296473412949278  0.4657010492611713  0.5762769712560263  1.0000
  H   H23       1.0  0.6748014913812265  0.408507603860016  0.8831866254726064  1.0000
  H   H24       1.0  0.5501716045090081  0.3026685975686781  0.8970299441874332  1.0000
  H   H25       1.0  0.6185979666300048  0.05105797570918337  0.22409814349925702  1.0000
  H   H26       1.0  0.7440178278023305  0.15399580214971828  0.21035484293107576  1.0000
  H   H27       1.0  0.47800421200206483  0.20168775748506934  0.27361462112341645  1.0000
  H   H28       1.0  0.3866137155874524  0.18036977459789122  0.20561253007120905  1.0000
  H   H29       1.0  0.4491599907965528  0.30773834415855283  0.1353496104783147  1.0000
  Zn  Zn1       1.0  0.8201511500880373  0.4407698565037826  0.5295546862766758  1.0000
  Zn  Zn2       1.0  0.9847833957509894  0.4447644599073389  0.5219122150840372  1.0000
  C   C40       1.0  0.9024494631115825  0.43766263292345237  0.7629191581804089  1.0000
  C   C41       1.0  0.9024868808008059  0.4478733657574117  0.2885477872051787  1.0000
  C   C42       1.0  0.9025114807224717  0.6799569675240333  0.520561566101656  1.0000
  C   C43       1.0  0.9024248067170668  0.20557746951861833  0.5309054511094049  1.0000
  O   O1        1.0  0.9649592051800523  0.4511342953281668  0.33403151500486117  1.0000
  O   O2        1.0  0.9649292037072124  0.4374325350809026  0.7116345977378848  1.0000
  O   O3        1.0  0.9649784413845636  0.6330882544569918  0.5159291665275736  1.0000
  O   O4        1.0  0.9649099113342986  0.2554785838509368  0.5297368514524015  1.0000
  O   O5        1.0  0.8400245783238235  0.6300557311984345  0.521730052509481  1.0000
  O   O6        1.0  0.8399753409384176  0.43440157209880703  0.7174354144954882  1.0000
  O   O7        1.0  0.840005342576362  0.44810328663883525  0.33983077042195586  1.0000
  O   O8        1.0  0.8399560487181063  0.25244756590099615  0.5355362042334368  1.0000
