data_image0
_chemical_formula_structural       NC9NC5H8C12ClH9C12ClH9Zn2C4O8
_chemical_formula_sum              "N2 C42 H26 Cl2 Zn2 O8"
_cell_length_a       17.807436237873137
_cell_length_b       10.299768534541528
_cell_length_c       10.299771906710086
_cell_angle_alpha    85.54593327708469
_cell_angle_beta     89.40099058273775
_cell_angle_gamma    88.408414792471

_space_group_name_H-M_alt    "P 1"
_space_group_IT_number       1

loop_
  _space_group_symop_operation_xyz
  'x, y, z'

loop_
  _atom_site_type_symbol
  _atom_site_label
  _atom_site_symmetry_multiplicity
  _atom_site_fract_x
  _atom_site_fract_y
  _atom_site_fract_z
  _atom_site_occupancy
  N   N1        1.0  0.7075345038148807  0.3881459386848505  0.5571533075257289  1.0000
  C   C1        1.0  0.6469394165837821  0.3529600975406042  0.546128745268488  1.0000
  C   C2        1.0  0.5715657880315932  0.3091927860296251  0.5324153868556973  1.0000
  C   C3        1.0  0.5534513449315025  0.2378095408466931  0.4274111592784316  1.0000
  C   C4        1.0  0.48026741269119366  0.19520338398802606  0.41401374161551785  1.0000
  C   C5        1.0  0.4241491319583245  0.22360295948725994  0.5055880930427648  1.0000
  C   C6        1.0  0.3463735064533185  0.17843847837976767  0.4914321841256195  1.0000
  C   C7        1.0  0.284214742420772  0.26018552420762786  0.5173725945107353  1.0000
  C   C8        1.0  0.2108884689093595  0.2173763292930475  0.5039888543185838  1.0000
  C   C9        1.0  0.1476801485432251  0.3018145687823552  0.5302932164748042  1.0000
  N   N2        1.0  0.09687364610975636  0.3696970712406456  0.5514411970548989  1.0000
  C   C10       1.0  0.19913736433683066  0.09256212101675709  0.46463934931342865  1.0000
  C   C11       1.0  0.2604387551952577  0.010801225594378345  0.43869054897280585  1.0000
  C   C12       1.0  0.3336455046336126  0.053215945893646525  0.4518717434739301  1.0000
  C   C13       1.0  0.44295509170066283  0.2954804978285683  0.6108115593790524  1.0000
  C   C14       1.0  0.5161918454549782  0.337896309119901  0.6240533226971099  1.0000
  H   H1        1.0  0.5958354178398743  0.21534552613979516  0.3556979293969533  1.0000
  H   H2        1.0  0.46733717956362314  0.1415461821867272  0.331092238831723  1.0000
  H   H3        1.0  0.292732983939646  0.3576401111547374  0.5462514038816844  1.0000
  H   H4        1.0  0.14266503659264798  0.05852981664882061  0.45404384766100003  1.0000
  H   H5        1.0  0.2512222094798126  0.9141670693865852  0.4086113418439265  1.0000
  H   H6        1.0  0.3802723635835211  0.987477735906012  0.4328221493460731  1.0000
  H   H7        1.0  0.4012879195609954  0.31740509913924564  0.683819279239454  1.0000
  H   H8        1.0  0.5296505576941299  0.3927743738953784  0.7059332195541348  1.0000
  C   C15       1.0  0.9021368072195283  0.9975593133096887  0.5542961390393601  1.0000
  C   C16       1.0  0.907071982608221  0.006930400897219972  0.41775500393675385  1.0000
  C   C17       1.0  0.9096448990623284  0.8945360138397965  0.3485748541100204  1.0000
  C   C18       1.0  0.9072154672984256  0.7716358799676305  0.4177683887776453  1.0000
  C   C19       1.0  0.9022785245875411  0.7602733471049999  0.5543094877593726  1.0000
  C   C20       1.0  0.8997673949538452  0.8737910614861036  0.6218087236895598  1.0000
  C   C21       1.0  0.9148669020853337  0.9055034637720533  0.2041257011420647  1.0000
  C   C22       1.0  0.8721210187658742  0.0010904689756956487  0.13028913831593592  1.0000
  C   C23       1.0  0.8771030536808009  0.01121437639289003  0.9943364931791766  1.0000
  C   C24       1.0  0.9247582656327259  0.926277345084083  0.9305296221652072  1.0000
  C   C25       1.0  0.9674916966644128  0.831003608925368  0.0028551493352604305  1.0000
  C   C26       1.0  0.9626430747136118  0.8204811242815723  0.13882048038606487  1.0000
  Cl  Cl1       1.0  0.9309252616059221  0.9392293026838314  0.7599543923252563  1.0000
  H   H9        1.0  0.9002177155260246  0.32144404541861693  0.6063223453423996  1.0000
  H   H10       1.0  0.9099634565316123  0.10182092051824121  0.3649800687920983  1.0000
  H   H11       1.0  0.9081463778601251  0.6847732068247024  0.3648086624776308  1.0000
  H   H12       1.0  0.8959593734835353  0.8657935461258418  0.7271439352094364  1.0000
  H   H13       1.0  0.9004272307183298  0.4284885255242279  0.606342500357691  1.0000
  H   H14       1.0  0.8341410185563025  0.06685263046749634  0.1775897499569714  1.0000
  H   H15       1.0  0.8437425736073756  0.08492521706494394  0.9387142527407493  1.0000
  H   H16       1.0  0.004633716439947702  0.7652350258808881  0.9538773563327205  1.0000
  H   H17       1.0  0.99695672077775  0.7470188565907941  0.19293443372816377  1.0000
  C   C27       1.0  0.9021719251097708  0.3790243617332556  0.17293409488904943  1.0000
  C   C28       1.0  0.9703259029753697  0.4446773229229816  0.16560790111510038  1.0000
  C   C29       1.0  0.004896692388939973  0.47783431823025757  0.044764782885310155  1.0000
  C   C30       1.0  0.9703983322275908  0.44445873026305666  0.9303370578525709  1.0000
  C   C31       1.0  0.9022433889214947  0.37880837469188644  0.9356716098819603  1.0000
  C   C32       1.0  0.8685121956193524  0.34645798579715614  0.05743255508803768  1.0000
  C   C33       1.0  0.07699841667267782  0.5472882572515827  0.038068020879226554  1.0000
  C   C34       1.0  0.08889091632180458  0.6497291013397593  0.11769773554009055  1.0000
  C   C35       1.0  0.1567885806937248  0.7149985921596052  0.11120671807896998  1.0000
  C   C36       1.0  0.21356423841188693  0.6788377134778671  0.02538500584832315  1.0000
  C   C37       1.0  0.20238909632968838  0.5772223378888849  0.9458735793096343  1.0000
  C   C38       1.0  0.13455873196477963  0.5117493376994947  0.951987974104346  1.0000
  Cl  Cl2       1.0  0.2987071012302771  0.7608528234759014  0.017477999742758328  1.0000
  H   H18       1.0  0.8761820371990502  0.35406553969865184  0.5031749716585583  1.0000
  H   H19       1.0  0.9972091073853274  0.46860278920386267  0.2541948089012349  1.0000
  H   H20       1.0  0.9962924907122732  0.4713726191279741  0.8368481645429848  1.0000
  H   H21       1.0  0.8159340825571485  0.2958108898712055  0.062316180575191726  1.0000
  H   H22       1.0  0.876287529067825  0.3537459716339906  0.610254232814543  1.0000
  H   H23       1.0  0.04534449674304031  0.6804454699255501  0.18371113201813372  1.0000
  H   H24       1.0  0.16511011741519788  0.7938776490702464  0.1727198572865285  1.0000
  H   H25       1.0  0.24627875195384585  0.5486368362718181  0.8795116156188558  1.0000
  H   H26       1.0  0.12748402400099224  0.4322709258405226  0.8906760665154279  1.0000
  Zn  Zn1       1.0  0.8198893689598581  0.3828185267072181  0.5555124265603049  1.0000
  Zn  Zn2       1.0  0.984518761801228  0.37501389421156517  0.5530927544415123  1.0000
  C   C39       1.0  0.9022272505657154  0.3736756691830445  0.7914977947174677  1.0000
  C   C40       1.0  0.9021826782596103  0.3841583050632962  0.3171074873567745  1.0000
  C   C41       1.0  0.902247378871254  0.6161058439061229  0.5491318890605386  1.0000
  C   C42       1.0  0.9021624934941611  0.14172657270937192  0.5594734630505662  1.0000
  O   O1        1.0  0.9646622826722797  0.3829138203469553  0.3645751418507954  1.0000
  O   O2        1.0  0.9646975458377381  0.3689956388231512  0.7421932912096145  1.0000
  O   O3        1.0  0.96471295761924  0.5647611104043171  0.5464811200150341  1.0000
  O   O4        1.0  0.9646468147065193  0.18714836074661417  0.560287216496586  1.0000
  O   O5        1.0  0.8397612598746345  0.5706840628369227  0.5483179653241157  1.0000
  O   O6        1.0  0.8397458483731104  0.374920151551357  0.7440300673007181  1.0000
  O   O7        1.0  0.839710585102895  0.3888382882598564  0.36641035654039356  1.0000
  O   O8        1.0  0.8396951171414607  0.19307281934344434  0.5621225285538589  1.0000
