data_image0
_chemical_formula_structural       NC8NC6H8C8H10C8H8Zn2C4O8
_chemical_formula_sum              "N2 C34 H26 Zn2 O8"
_cell_length_a       17.457602349358154
_cell_length_b       9.275653711864159
_cell_length_c       9.275657083861812
_cell_angle_alpha    86.03202775307278
_cell_angle_beta     92.37146316173272
_cell_angle_gamma    91.13236207428555

_space_group_name_H-M_alt    "P 1"
_space_group_IT_number       1

loop_
  _space_group_symop_operation_xyz
  'x, y, z'

loop_
  _atom_site_type_symbol
  _atom_site_label
  _atom_site_symmetry_multiplicity
  _atom_site_fract_x
  _atom_site_fract_y
  _atom_site_fract_z
  _atom_site_occupancy
  N   N1        1.0  0.7212771407582483  0.6050453576523891  0.4804377913491412  1.0000
  C   C1        1.0  0.6605137603358194  0.5540143693399895  0.4685199385071838  1.0000
  C   C2        1.0  0.5849214505798219  0.4905382143220014  0.45370473419285773  1.0000
  C   C3        1.0  0.5257798328933175  0.5355223484306446  0.5369293396538026  1.0000
  C   C4        1.0  0.4516104547110006  0.47440063513490727  0.5228023047987918  1.0000
  C   C5        1.0  0.3888424749940975  0.5218985544072006  0.6109399308107571  1.0000
  C   C6        1.0  0.31447848258354705  0.5420933326774591  0.5491233359592985  1.0000
  C   C7        1.0  0.25533734689454296  0.5868739125209793  0.6324671644468194  1.0000
  C   C8        1.0  0.17954318031606442  0.6077290748789783  0.5681942345982123  1.0000
  N   N2        1.0  0.11861762221784611  0.6244895453016412  0.5165189472657472  1.0000
  C   C9        1.0  0.2700640461719416  0.6117323497600309  0.7781925515390637  1.0000
  C   C10       1.0  0.3436391372531067  0.5919714248817824  0.8404403854994014  1.0000
  C   C11       1.0  0.40276529187899973  0.5473931826040822  0.7576049684611454  1.0000
  C   C12       1.0  0.43788255292858624  0.3675351063466289  0.4238587121006512  1.0000
  C   C13       1.0  0.49700881546731324  0.3228624618772704  0.3410787757580925  1.0000
  C   C14       1.0  0.5703899598541158  0.3841118971291794  0.35581634937035383  1.0000
  H   H1        1.0  0.5373552166489501  0.6193446229143214  0.611087453368193  1.0000
  H   H2        1.0  0.3027436184328792  0.524922069179296  0.43587644253726715  1.0000
  H   H3        1.0  0.22472531189698583  0.6463300140361782  0.8435675820309139  1.0000
  H   H4        1.0  0.3548533981613068  0.6108695302453429  0.9532778462158158  1.0000
  H   H5        1.0  0.45909829509878186  0.5310045511552604  0.8087170831185754  1.0000
  H   H6        1.0  0.38170929971412176  0.31715840422921604  0.4119025722874654  1.0000
  H   H7        1.0  0.4859470949862555  0.24027284280408676  0.2655944442534939  1.0000
  H   H8        1.0  0.6157310272120065  0.34855172303544885  0.29100580386810315  1.0000
  C   C15       1.0  0.9221091168784971  0.19147717804079106  0.4973294232212286  1.0000
  C   C16       1.0  0.9047120738242529  0.2733717023149102  0.36718268476876703  1.0000
  C   C17       1.0  0.8803762708566156  0.2063223569769523  0.24198491036269007  1.0000
  C   C18       1.0  0.87458248911067  0.05546876429383342  0.24606495324319508  1.0000
  C   C19       1.0  0.8928198012365507  0.9724136301851157  0.3735098534735293  1.0000
  C   C20       1.0  0.9177929642971474  0.03804698482703973  0.49964038222906976  1.0000
  C   C21       1.0  0.8630559841951435  0.295557702891462  0.1030580568258177  1.0000
  C   C22       1.0  0.9352053132114432  0.3204510428658367  0.016842634866365273  1.0000
  H   H9        1.0  0.9907789735722486  0.46040733634805653  0.7033732438205136  1.0000
  H   H10       1.0  0.9084011091383931  0.3903509744730327  0.3636339307440828  1.0000
  H   H11       1.0  0.8566618366731953  0.0018654886234994459  0.1498808500624617  1.0000
  H   H12       1.0  0.8892784073497405  0.8557646934459082  0.37230832270801884  1.0000
  H   H13       1.0  0.9239045896564926  0.7404593624423569  0.7379154681367206  1.0000
  H   H14       1.0  0.8186503143850415  0.24018244725242366  0.03634046789941281  1.0000
  H   H15       1.0  0.8396694068772386  0.40170784461924747  0.12648551777571204  1.0000
  H   H16       1.0  0.9796089751993287  0.37912599579518447  0.0803903084526163  1.0000
  H   H17       1.0  0.958355979646629  0.2155251417411641  0.989281796808528  1.0000
  H   H18       1.0  0.9212123737644295  0.3863087539385244  0.9149580810449409  1.0000
  C   C23       1.0  0.9219150944538138  0.6126847289478801  0.07533644902210401  1.0000
  C   C24       1.0  0.9610707677016911  0.7245086525277509  0.1441832482937504  1.0000
  C   C25       1.0  0.9934250572947468  0.8421706696420274  0.06375316796448738  1.0000
  C   C26       1.0  0.9877665916097746  0.8470810454173036  0.9126170129070155  1.0000
  C   C27       1.0  0.9502635966260236  0.7359835283503315  0.8424697444802187  1.0000
  C   C28       1.0  0.917986990595229  0.6168394534901356  0.9216334130134989  1.0000
  C   C29       1.0  0.036096310344799765  0.9598783322874584  0.1391969549247567  1.0000
  C   C30       1.0  0.1205212897065724  0.9228677275370823  0.16457659244239342  1.0000
  H   H19       1.0  0.9650485632468603  0.7220302561516834  0.26126095210393263  1.0000
  H   H20       1.0  0.013165109871521525  0.9364461089020716  0.8488184199138749  1.0000
  H   H21       1.0  0.8283088894691627  0.4462824525182408  0.6451252444954781  1.0000
  H   H22       1.0  0.03136392960637524  0.06431706413838567  0.07326102044882865  1.0000
  H   H23       1.0  0.010512333475524605  0.9749554795003292  0.24480237699308782  1.0000
  H   H24       1.0  0.12650215667458498  0.8205926937487069  0.23354048584182616  1.0000
  H   H25       1.0  0.14757010574020257  0.9109218140319852  0.05981563522494925  1.0000
  H   H26       1.0  0.15091280811891228  0.01090456537062456  0.2201792170914789  1.0000
  Zn  Zn1       1.0  0.8359410018038558  0.6106527055009916  0.49085834293590236  1.0000
  Zn  Zn2       1.0  0.003953752418965446  0.6188704371004605  0.5061101607544308  1.0000
  C   C31       1.0  0.918757054614282  0.610311661311022  0.7616493117828824  1.0000
  C   C32       1.0  0.9211395243734344  0.6192133904651176  0.23531950485227576  1.0000
  C   C33       1.0  0.9186315207890507  0.8779989166409378  0.49346110737984983  1.0000
  C   C34       1.0  0.9212650093405612  0.351524400891142  0.503507776147199  1.0000
  O   O1        1.0  0.9846392312836165  0.6245167666836611  0.29479924806213575  1.0000
  O   O2        1.0  0.9827751453399364  0.6112442637773282  0.7137449276243384  1.0000
  O   O3        1.0  0.9826729087192061  0.8274050731393083  0.4971809811583478  1.0000
  O   O4        1.0  0.9847414110218835  0.4083559642985515  0.5113630813096492  1.0000
  O   O5        1.0  0.8551532858664591  0.8211671755001237  0.4856054171684116  1.0000
  O   O6        1.0  0.8552555140108153  0.6050080975794268  0.7021692915302398  1.0000
  O   O7        1.0  0.8571196083027975  0.6182805417524084  0.28322187938100307  1.0000
  O   O8        1.0  0.8572217875890489  0.40211972958765135  0.4997858206347216  1.0000
