data_image0
_chemical_formula_structural       NC9NC5H8C7F3H5C7NH5Zn2C4O8
_chemical_formula_sum              "N3 C32 H18 F3 Zn2 O8"
_cell_length_a       17.807436237873137
_cell_length_b       9.27228830945605
_cell_length_c       10.302823150593486
_cell_angle_alpha    85.26210332699969
_cell_angle_beta     89.3921433004221
_cell_angle_gamma    87.81380667828488

_space_group_name_H-M_alt    "P 1"
_space_group_IT_number       1

loop_
  _space_group_symop_operation_xyz
  'x, y, z'

loop_
  _atom_site_type_symbol
  _atom_site_label
  _atom_site_symmetry_multiplicity
  _atom_site_fract_x
  _atom_site_fract_y
  _atom_site_fract_z
  _atom_site_occupancy
  N   N1        1.0  0.6993652797637204  0.5426781380375191  0.550440829279288  1.0000
  C   C1        1.0  0.6389818028750618  0.5035603300007849  0.5396015397187841  1.0000
  C   C2        1.0  0.5638713942867158  0.4549020846815786  0.5261186401428324  1.0000
  C   C3        1.0  0.5461941414182752  0.37551585158858025  0.42151655159135903  1.0000
  C   C4        1.0  0.4732664504375705  0.3281485032048621  0.4083434938689865  1.0000
  C   C5        1.0  0.4169694829336194  0.3597477155932447  0.4997420267422168  1.0000
  C   C6        1.0  0.3394654805338983  0.3095361674885575  0.48582393504457566  1.0000
  C   C7        1.0  0.276815052293726  0.4004184305068266  0.5113337985503619  1.0000
  C   C8        1.0  0.2037462337523659  0.3528253791891083  0.4981754628365984  1.0000
  C   C9        1.0  0.1400301098686594  0.44669942200485435  0.5240352598447373  1.0000
  N   N2        1.0  0.0888153684365063  0.5221676578398482  0.5448258404567035  1.0000
  C   C10       1.0  0.1927457945003841  0.21406328728238538  0.4594832498967884  1.0000
  C   C11       1.0  0.254538933245491  0.12316562572236768  0.4339650706486833  1.0000
  C   C12       1.0  0.3274906076480619  0.1703200956050324  0.44692296289006944  1.0000
  C   C13       1.0  0.4353352735852432  0.43968349865190565  0.6045607308699932  1.0000
  C   C14       1.0  0.5083169399951706  0.48683920040210393  0.6175791670400139  1.0000
  H   H1        1.0  0.5887194863599862  0.3505211569326889  0.34994216441074255  1.0000
  H   H2        1.0  0.46066522446849906  0.26847437625488385  0.32572553900789347  1.0000
  H   H3        1.0  0.2847473524964261  0.5087629053921845  0.5396999826069858  1.0000
  H   H4        1.0  0.1364781331864063  0.17622794337853945  0.4490669254423465  1.0000
  H   H5        1.0  0.2459035337941413  0.015732804736446473  0.40439463208238335  1.0000
  H   H6        1.0  0.3745126735279085  0.09723622287798682  0.428219024424239  1.0000
  H   H7        1.0  0.3935299338278522  0.4640789619355765  0.677431983150529  1.0000
  H   H8        1.0  0.5214394386133364  0.5478701717007406  0.6991495401346646  1.0000
  C   C15       1.0  0.8963051952949852  0.10848164609282643  0.5496023216668471  1.0000
  C   C16       1.0  0.9320098051837198  0.18861096078658626  0.4465430182671981  1.0000
  C   C17       1.0  0.9602932165431994  0.12150518775138551  0.33906418987865905  1.0000
  C   C18       1.0  0.9525969286627994  0.9727058228814472  0.3308764279038867  1.0000
  C   C19       1.0  0.9196335212909346  0.8907496897977176  0.4355487781161577  1.0000
  C   C20       1.0  0.8918827067732608  0.9563527151964217  0.5456755873809338  1.0000
  C   C21       1.0  0.9850782566169686  0.899453963226519  0.21636915495678588  1.0000
  F   F1        1.0  0.9844274772222056  0.9940882359591994  0.10516124536258276  1.0000
  F   F2        1.0  0.9436976104207491  0.7812801918547715  0.19221741265158943  1.0000
  F   F3        1.0  0.05835752757325884  0.853037374774653  0.24342761628477727  1.0000
  H   H9        1.0  0.7699657344090004  0.19771191803709523  0.7849495592183493  1.0000
  H   H10       1.0  0.9367498641203563  0.3046255935837183  0.4478180807887904  1.0000
  H   H11       1.0  0.9876741696607046  0.18654046871866314  0.26162834628982923  1.0000
  H   H12       1.0  0.9172323437213609  0.7744373354545027  0.43266406711376026  1.0000
  H   H13       1.0  0.8568853814116083  0.8285084365074027  0.8606007266227702  1.0000
  C   C22       1.0  0.894093951162941  0.5324171904200417  0.16639086545014112  1.0000
  C   C23       1.0  0.8152916305811545  0.5470280947035249  0.16564830417516796  1.0000
  C   C24       1.0  0.7760867339048947  0.5542970388017794  0.048176365741244835  1.0000
  C   C25       1.0  0.81529161646047  0.547028001205575  0.9303473109738797  1.0000
  C   C26       1.0  0.8940939507533618  0.5324171829436357  0.9288870321062723  1.0000
  C   C27       1.0  0.9330833771248074  0.5251880379519087  0.047461369407693285  1.0000
  C   C28       1.0  0.6953028302322374  0.5692751223285066  0.04854422786590473  1.0000
  N   N3        1.0  0.6303789660697964  0.5813127841409416  0.04883983331909181  1.0000
  H   H14       1.0  0.9239426299469945  0.5268832440448461  0.49399435697279004  1.0000
  H   H15       1.0  0.7842129985092677  0.5527904479909422  0.2562140859004367  1.0000
  H   H16       1.0  0.7842130288674796  0.5527903401268971  0.840064549465281  1.0000
  H   H17       1.0  0.9938528881372117  0.5139206594635517  0.04718466281494815  1.0000
  H   H18       1.0  0.9239426059780247  0.5268830136244633  0.6010116581014815  1.0000
  Zn  Zn1       1.0  0.8117521816693011  0.5367554043873604  0.5488279910484353  1.0000
  Zn  Zn2       1.0  0.976428509715043  0.5280786235822973  0.5464494064174856  1.0000
  C   C29       1.0  0.8941222563230483  0.5266660326852517  0.7847855809496914  1.0000
  C   C30       1.0  0.8940602238205041  0.5381697220726842  0.3104919095321086  1.0000
  C   C31       1.0  0.8927147678747296  0.7960872243883563  0.5412443300084777  1.0000
  C   C32       1.0  0.8954676651233673  0.2687467988514134  0.5540332385345732  1.0000
  O   O1        1.0  0.956542745743282  0.5368012329418888  0.3579509050029308  1.0000
  O   O2        1.0  0.956625262716844  0.5214479568632739  0.7355209260970097  1.0000
  O   O3        1.0  0.9554878555482441  0.7390090208479041  0.538859648083651  1.0000
  O   O4        1.0  0.9576800966651413  0.3192401822453493  0.5546120864362949  1.0000
  O   O5        1.0  0.8305005385232465  0.7455938486868392  0.540665311834484  1.0000
  O   O6        1.0  0.8316379366413447  0.528034519182906  0.7373265125914495  1.0000
  O   O7        1.0  0.8315554199802084  0.5433877449510816  0.35975493082368315  1.0000
  O   O8        1.0  0.8326927709528513  0.32582668392898295  0.5564162096418999  1.0000
