data_image0
_chemical_formula_structural       NC8NC6H8C7H8C6NH7Zn2C4O8
_chemical_formula_sum              "N3 C31 H23 Zn2 O8"
_cell_length_a       17.457602349358154
_cell_length_b       9.274341958901593
_cell_length_c       9.274774538082514
_cell_angle_alpha    85.03522541298749
_cell_angle_beta     93.23827242343725
_cell_angle_gamma    91.07026823974832

_space_group_name_H-M_alt    "P 1"
_space_group_IT_number       1

loop_
  _space_group_symop_operation_xyz
  'x, y, z'

loop_
  _atom_site_type_symbol
  _atom_site_label
  _atom_site_symmetry_multiplicity
  _atom_site_fract_x
  _atom_site_fract_y
  _atom_site_fract_z
  _atom_site_occupancy
  N   N1        1.0  0.7080943998560797  0.6262247647160393  0.47140473383666737  1.0000
  C   C1        1.0  0.6472713728409463  0.5753318498381974  0.4596595307819633  1.0000
  C   C2        1.0  0.5716049426236105  0.5120273181213524  0.44505909849700964  1.0000
  C   C3        1.0  0.5130939515431231  0.5559100433929008  0.5282698101369847  1.0000
  C   C4        1.0  0.43885430427616534  0.494951719678441  0.5143498447229524  1.0000
  C   C5        1.0  0.3767542766011637  0.5412831478717899  0.6024732993453943  1.0000
  C   C6        1.0  0.3018850138790363  0.5623196413451583  0.5404618474775673  1.0000
  C   C7        1.0  0.24337559247303914  0.6059971164333815  0.6237927879653429  1.0000
  C   C8        1.0  0.16705617592720487  0.6277273776560132  0.5593178020578998  1.0000
  N   N2        1.0  0.10570832290213641  0.645191422448298  0.50748008903444  1.0000
  C   C9        1.0  0.259243579813844  0.6289032424600303  0.769700175049  1.0000
  C   C10       1.0  0.3333270708349483  0.6082949837571933  0.8321420256381922  1.0000
  C   C11       1.0  0.39182541344600186  0.5648130858953038  0.749319689080448  1.0000
  C   C12       1.0  0.4244133746283815  0.3893721018990268  0.4156270952812135  1.0000
  C   C13       1.0  0.4829123310835631  0.3457950127882401  0.3328607062469702  1.0000
  C   C14       1.0  0.5563685099461431  0.4068728893414184  0.3473918827091804  1.0000
  H   H1        1.0  0.5252011864114545  0.6387701712581009  0.6022481386330023  1.0000
  H   H2        1.0  0.2892617496420746  0.5466665144679703  0.4270653003890051  1.0000
  H   H3        1.0  0.2144007264762451  0.6626353968193415  0.8350671181560119  1.0000
  H   H4        1.0  0.3454252898344  0.625681229508682  0.9451217520631489  1.0000
  H   H5        1.0  0.44857597921651815  0.5477286312067133  0.8005917352064287  1.0000
  H   H6        1.0  0.36817972058433  0.33913427736192614  0.4038410282339354  1.0000
  H   H7        1.0  0.4713073697142551  0.2641859508296555  0.25754891988921536  1.0000
  H   H8        1.0  0.6012188453233458  0.37217019605892965  0.28259418203599274  1.0000
  C   C15       1.0  0.9093450206947449  0.21224676437677  0.4899113760193425  1.0000
  C   C16       1.0  0.9179782576039622  0.2971537541196489  0.35854767183192204  1.0000
  C   C17       1.0  0.918983170904417  0.23338558963793066  0.2278928426155893  1.0000
  C   C18       1.0  0.9105369539086309  0.08336759644091751  0.22538351065115636  1.0000
  C   C19       1.0  0.9042901642475254  0.9969758613443774  0.3558958086455569  1.0000
  C   C20       1.0  0.9044651213127687  0.05915851940459317  0.48898664121152047  1.0000
  C   C21       1.0  0.9133149421880697  0.01473170129779721  0.08513246762622373  1.0000
  H   H9        1.0  0.8466087053432189  0.2845012362378722  0.818598162945052  1.0000
  H   H10       1.0  0.9223182580021815  0.41399010502208444  0.3564607214129731  1.0000
  H   H11       1.0  0.9255387572749454  0.3014467748465354  0.12828886887305146  1.0000
  H   H12       1.0  0.9010403951420288  0.8803329439937636  0.3537584149538254  1.0000
  H   H13       1.0  0.8652851648362171  0.7577197453451621  0.7124444225621867  1.0000
  H   H14       1.0  0.9735718750633411  0.988264836538878  0.06695817650010749  1.0000
  H   H15       1.0  0.8906449786215047  0.08925160021122512  0.9930082724931014  1.0000
  H   H16       1.0  0.8779373918919009  0.9138218865234676  0.08769560092446849  1.0000
  C   C22       1.0  0.9055069229310092  0.639325176158889  0.06550372451385855  1.0000
  C   C23       1.0  0.9593809904455854  0.7270153297295785  0.13707977186097753  1.0000
  C   C24       1.0  0.01676552477566485  0.802991075329095  0.061479656810359044  1.0000
  C   C25       1.0  0.020742258628079657  0.7916310715644265  0.912869620702768  1.0000
  C   C26       1.0  0.9670960375690884  0.7071293066747759  0.8396098752178814  1.0000
  C   C27       1.0  0.90830323027778  0.6320800864981722  0.9133942569805864  1.0000
  N   N3        1.0  0.07152153290767083  0.8905226255369635  0.13614108158273508  1.0000
  H   H17       1.0  0.7924491560588888  0.3519632224794393  0.18132679448047617  1.0000
  H   H18       1.0  0.9579605332415085  0.7337886054446814  0.2529671312263082  1.0000
  H   H19       1.0  0.06505213060413809  0.8494742693690162  0.8533273558869716  1.0000
  H   H20       1.0  0.970540374904458  0.7032813276192538  0.7237516119037046  1.0000
  H   H21       1.0  0.8297732496522227  0.4428092634480591  0.6402930464396992  1.0000
  H   H22       1.0  0.06924147683423136  0.8994592674115938  0.24729898916773774  1.0000
  H   H23       1.0  0.11473054831697539  0.947179013669655  0.0807882665726096  1.0000
  Zn  Zn1       1.0  0.8228372389186152  0.6316941941132752  0.48182364190276306  1.0000
  Zn  Zn2       1.0  0.9909655766941919  0.6397100690125481  0.49707301343021787  1.0000
  C   C28       1.0  0.9078060618077708  0.62770480452919  0.7531309106215267  1.0000
  C   C29       1.0  0.905998579744791  0.6437013643965452  0.22576605094429247  1.0000
  C   C30       1.0  0.9053646185669809  0.8991231535019082  0.4834081188719275  1.0000
  C   C31       1.0  0.9084399758516812  0.37228127951433065  0.49548891635062164  1.0000
  O   O1        1.0  0.9699674484895043  0.6482057448136878  0.28533861560009166  1.0000
  O   O2        1.0  0.9714427161074174  0.6292832033803445  0.7051318517139622  1.0000
  O   O3        1.0  0.9694703646587987  0.8484568988950261  0.4873287093919984  1.0000
  O   O4        1.0  0.9719397421508815  0.4290320578042721  0.5031416444615542  1.0000
  O   O5        1.0  0.8418630160879415  0.8423722025877607  0.47575500565996925  1.0000
  O   O6        1.0  0.8438353572964759  0.6232002402487843  0.6935580691137455  1.0000
  O   O7        1.0  0.8423600842948  0.6421227462649401  0.273763097342574  1.0000
  O   O8        1.0  0.8443323783694343  0.4229490480164689  0.49156623445308045  1.0000
