data_image0
_chemical_formula_structural       NC12NC2H8C7NC2OH7C10H5Zn2C4O8
_chemical_formula_sum              "N3 C37 H20 O9 Zn2"
_cell_length_a       17.80743265337812
_cell_length_b       10.300333997791364
_cell_length_c       10.302835742178797
_cell_angle_alpha    85.56029189784547
_cell_angle_beta     91.5341157365678
_cell_angle_gamma    89.43519355652523

_space_group_name_H-M_alt    "P 1"
_space_group_IT_number       1

loop_
  _space_group_symop_operation_xyz
  'x, y, z'

loop_
  _atom_site_type_symbol
  _atom_site_label
  _atom_site_symmetry_multiplicity
  _atom_site_fract_x
  _atom_site_fract_y
  _atom_site_fract_z
  _atom_site_occupancy
  N   N1        1.0  0.7074098058094261  0.4065584229049486  0.6018210771994785  1.0000
  C   C1        1.0  0.6565894474920295  0.4361134960749251  0.5331457421740204  1.0000
  C   C2        1.0  0.5933639070275594  0.47287786186646863  0.4477222704829482  1.0000
  C   C3        1.0  0.60508958272323  0.5268917052993485  0.3211456449881853  1.0000
  C   C4        1.0  0.5437714159031483  0.562152640052523  0.23811733164047966  1.0000
  C   C5        1.0  0.47057326509871006  0.5436631613158419  0.2810059661126538  1.0000
  C   C6        1.0  0.4578708197314357  0.48953053528723034  0.40805057604309725  1.0000
  C   C7        1.0  0.5200463025194173  0.45427285377359666  0.49106238326264423  1.0000
  C   C8        1.0  0.3801044851610731  0.4699270778299859  0.45379853145646504  1.0000
  C   C9        1.0  0.3613197065136698  0.49711543043232  0.5808010309120117  1.0000
  C   C10       1.0  0.28809160997349936  0.4786675236285175  0.6237302155162245  1.0000
  C   C11       1.0  0.2327053319943879  0.432777032422692  0.5404945853558545  1.0000
  C   C12       1.0  0.15734064656055644  0.4137763747349986  0.5848242206768677  1.0000
  N   N2        1.0  0.0967527764918496  0.3985011238366223  0.62046219789166  1.0000
  C   C13       1.0  0.2507986237523608  0.4054197935575876  0.4140348714894233  1.0000
  C   C14       1.0  0.3239738624535689  0.42388247741587176  0.37084988540012054  1.0000
  H   H1        1.0  0.6615548301576193  0.5417135486966116  0.28672038790770404  1.0000
  H   H2        1.0  0.5529682743119784  0.604244240815415  0.14037159059209925  1.0000
  H   H3        1.0  0.4239330911173973  0.5732949300227286  0.21543754267312787  1.0000
  H   H4        1.0  0.5115478354337009  0.41079602570597595  0.5886836964357574  1.0000
  H   H5        1.0  0.4029965652302801  0.534294358310993  0.6463529282506038  1.0000
  H   H6        1.0  0.2746491491172861  0.5005146340653042  0.7217068185220112  1.0000
  H   H7        1.0  0.20840488169387272  0.3695080822197969  0.3488958127757624  1.0000
  H   H8        1.0  0.3368879428741793  0.4004999228399912  0.27317649048980286  1.0000
  C   C15       1.0  0.9020853609380607  0.02118444516900841  0.6111501941986566  1.0000
  C   C16       1.0  0.8822600094507854  0.030826904212570165  0.47787284900223415  1.0000
  C   C17       1.0  0.8722574987769101  0.9186033854289377  0.4106294661275789  1.0000
  C   C18       1.0  0.8822579502313077  0.795535328494996  0.4778613469824764  1.0000
  C   C19       1.0  0.9020844349902  0.7838649346981642  0.6111446112073131  1.0000
  C   C20       1.0  0.9118877102821067  0.8972546681722147  0.6770455349909819  1.0000
  C   C21       1.0  0.8513913336100218  0.9304957870314299  0.27034500611353485  1.0000
  N   N3        1.0  0.8406927931649886  0.8276691336369699  0.19841446015264808  1.0000
  C   C22       1.0  0.8229128767778855  0.8833538762828476  0.07887613187916465  1.0000
  C   C23       1.0  0.8234179715028177  0.016550098404545015  0.08227445375441444  1.0000
  O   O1        1.0  0.8411604762724642  0.04253004240595071  0.2015620418212791  1.0000
  H   H9        1.0  0.9096314352681513  0.34493860143919775  0.6619255594373576  1.0000
  H   H10       1.0  0.8745642333154765  0.12583998915381933  0.42613438029449496  1.0000
  H   H11       1.0  0.8745779975631665  0.7087438560935304  0.4262330160847747  1.0000
  H   H12       1.0  0.9271798603799855  0.889033517323898  0.779847744412332  1.0000
  H   H13       1.0  0.9096372881274666  0.4519884397339847  0.661946843354055  1.0000
  H   H14       1.0  0.8103853604869717  0.830054761475089  0.9946495842284895  1.0000
  H   H15       1.0  0.8114741126514299  0.08839693823488748  0.0019742140265026666  1.0000
  C   C24       1.0  0.902084864226962  0.4025246809332345  0.22989979391901086  1.0000
  C   C25       1.0  0.8654990895460367  0.524468797915266  0.21766832070394648  1.0000
  C   C26       1.0  0.8472971806082152  0.5851381426383537  0.09447949919589349  1.0000
  C   C27       1.0  0.8654992799226462  0.5244688537548807  0.982365776631188  1.0000
  C   C28       1.0  0.9020849000181566  0.40252476200147635  0.9923949896287514  1.0000
  C   C29       1.0  0.9201871089135057  0.34218801832441853  0.1166545522527731  1.0000
  C   C30       1.0  0.8097932058762244  0.7101425743287647  0.08306993722416545  1.0000
  C   C31       1.0  0.7783940759940348  0.8147984935274596  0.07351753195887212  1.0000
  C   C32       1.0  0.7416260152991596  0.9373495459147145  0.062331841356210844  1.0000
  C   C33       1.0  0.7102316046118126  0.04198940934133022  0.05278103092353081  1.0000
  H   H16       1.0  0.9159392625503227  0.3563467581771603  0.5618538740262098  1.0000
  H   H17       1.0  0.8510666992205281  0.5725734642168894  0.3036958184109033  1.0000
  H   H18       1.0  0.851066918404297  0.572573601801696  0.8875569512646289  1.0000
  H   H19       1.0  0.948401510279457  0.24814612531713487  0.12523816977475555  1.0000
  H   H20       1.0  0.6826646884904799  0.1338719322712656  0.04439464517965552  1.0000
  Zn  Zn1       1.0  0.8197657802207376  0.40422979337669757  0.6072079865371915  1.0000
  Zn  Zn2       1.0  0.9843967996004159  0.40081916056368816  0.615085878313087  1.0000
  C   C34       1.0  0.9020832297233505  0.3973514128450564  0.8482670462575564  1.0000
  C   C35       1.0  0.9020811478613847  0.4076991423692853  0.37402703203296905  1.0000
  C   C36       1.0  0.9020807242092811  0.6397022073444687  0.6059719563728081  1.0000
  C   C37       1.0  0.9020835972003393  0.16534678882788698  0.6163221884575698  1.0000
  O   O2        1.0  0.9645565144950151  0.40813575612863384  0.42538706867703335  1.0000
  O   O3        1.0  0.9645589974976074  0.39432522803553627  0.8028857734694372  1.0000
  O   O4        1.0  0.9645561320487499  0.5900265769860638  0.6072307337975842  1.0000
  O   O5        1.0  0.9645593237664403  0.21243441763156157  0.6210420083169328  1.0000
  O   O6        1.0  0.8396031998742263  0.592614537474119  0.6012518538381788  1.0000
  O   O7        1.0  0.8396060653177115  0.39691474873087323  0.796906824275013  1.0000
  O   O8        1.0  0.8396035823650502  0.41072523156963836  0.4194065585812949  1.0000
  O   O9        1.0  0.8396063916334204  0.21502388378440646  0.6150615955579817  1.0000
