data_image0
_chemical_formula_structural       NC9NC5H8C6H6C6NCH7Zn2C4O8
_chemical_formula_sum              "N3 C31 H21 Zn2 O8"
_cell_length_a       17.807436237873137
_cell_length_b       10.681118228259551
_cell_length_c       9.273390368590327
_cell_angle_alpha    86.16779738115358
_cell_angle_beta     89.39974432744097
_cell_angle_gamma    88.3900060031841

_space_group_name_H-M_alt    "P 1"
_space_group_IT_number       1

loop_
  _space_group_symop_operation_xyz
  'x, y, z'

loop_
  _atom_site_type_symbol
  _atom_site_label
  _atom_site_symmetry_multiplicity
  _atom_site_fract_x
  _atom_site_fract_y
  _atom_site_fract_z
  _atom_site_occupancy
  N   N1        1.0  0.7075435763070902  0.32342354496623793  0.39868928337708276  1.0000
  C   C1        1.0  0.6469570676363774  0.28937765745786237  0.3864548114807842  1.0000
  C   C2        1.0  0.5715941098717431  0.24702832255211682  0.37123645684664797  1.0000
  C   C3        1.0  0.5535123639482995  0.17708863165477637  0.2547032397794196  1.0000
  C   C4        1.0  0.48033882825800883  0.13586232869143752  0.2398354963930689  1.0000
  C   C5        1.0  0.4241983230555911  0.1642113371358469  0.3414649546905544  1.0000
  C   C6        1.0  0.3464337098634545  0.12051004792920983  0.3257554807857421  1.0000
  C   C7        1.0  0.28425495477768026  0.1996120868992672  0.35454278660546046  1.0000
  C   C8        1.0  0.2109391130139826  0.15819013684410188  0.33969022653555414  1.0000
  C   C9        1.0  0.14771023415716839  0.23989113944330984  0.3688813969543796  1.0000
  N   N2        1.0  0.09688720391724859  0.3055731043241856  0.3923502917047277  1.0000
  C   C10       1.0  0.19921848387063038  0.03741712135991147  0.2960222270888253  1.0000
  C   C11       1.0  0.26053986990853  0.9583016388949844  0.2672256102925188  1.0000
  C   C12       1.0  0.3337362983853093  0.9993410642452479  0.28185339105404283  1.0000
  C   C13       1.0  0.4429714531973694  0.23462998398489154  0.4582414752404423  1.0000
  C   C14       1.0  0.5161978745782113  0.2756710984030694  0.4729364757791803  1.0000
  H   H1        1.0  0.5959138827707673  0.1546722080347962  0.1751157112400583  1.0000
  H   H2        1.0  0.46743391168076437  0.08324822815907205  0.1478095347967743  1.0000
  H   H3        1.0  0.2927497426434009  0.29389191559133976  0.3865908482394025  1.0000
  H   H4        1.0  0.1427544409303407  0.00448810953484635  0.28426390798434364  1.0000
  H   H5        1.0  0.25134684754383807  0.8648003321183723  0.23384532089120702  1.0000
  H   H6        1.0  0.380378898347298  0.9357489240288631  0.2607132621706998  1.0000
  H   H7        1.0  0.4012866958136532  0.25653986216415414  0.5392656504559048  1.0000
  H   H8        1.0  0.5296312361687492  0.3294515303577261  0.5638064303876675  1.0000
  C   C15       1.0  0.9022189880227175  0.9467482274723794  0.39552595389013856  1.0000
  C   C16       1.0  0.9351897316814739  0.8717794562922354  0.5094516701374958  1.0000
  C   C17       1.0  0.9351897202009382  0.7408972180347931  0.509451604429171  1.0000
  C   C18       1.0  0.9022189754041194  0.6822386325826084  0.3955260164007619  1.0000
  C   C19       1.0  0.8692755250497654  0.7571956254018392  0.28169444464536997  1.0000
  C   C20       1.0  0.8692755364932933  0.8880878835157634  0.2816945029557376  1.0000
  H   H9        1.0  0.8688764389452477  0.2537049966224767  0.2803168080515215  1.0000
  H   H10       1.0  0.9610338006064364  0.9141980277357428  0.5987519778933921  1.0000
  H   H11       1.0  0.9610337082414856  0.6856940031397873  0.5987519539378257  1.0000
  H   H12       1.0  0.8434280864185442  0.7148226434135494  0.19238247695077204  1.0000
  H   H13       1.0  0.8434280667269476  0.943247083242119  0.19238246555183738  1.0000
  H   H14       1.0  0.8688767155759358  0.3917756294528075  0.28031641366458215  1.0000
  C   C21       1.0  0.9022537981155697  0.3105866206090648  0.9722796456252115  1.0000
  C   C22       1.0  0.971254268107726  0.3049348676195356  0.044758729914585745  1.0000
  C   C23       1.0  0.03905121412189461  0.3109797686566668  0.9682401356192285  1.0000
  C   C24       1.0  0.039570250448135225  0.3229367110631278  0.8166036974085427  1.0000
  C   C25       1.0  0.9710276938218645  0.32645552286844176  0.7433075556570214  1.0000
  C   C26       1.0  0.902184174037513  0.31840023120549593  0.8187723142666083  1.0000
  N   N3        1.0  0.10863696282982314  0.3303653083721976  0.7346909469677976  1.0000
  C   C27       1.0  0.18281295011449572  0.3271121265351606  0.800471480459461  1.0000
  H   H15       1.0  0.7836748193470943  0.25586803529493274  0.2600502290452469  1.0000
  H   H16       1.0  0.09081337912296328  0.30745426595113406  0.028518396614220176  1.0000
  H   H17       1.0  0.7271026872266694  0.22913615365360335  0.7261317364715589  1.0000
  H   H18       1.0  0.10619936681458482  0.3387766482027501  0.621854800835631  1.0000
  H   H19       1.0  0.18768865905662846  0.4072226086175765  0.8698606391567538  1.0000
  H   H20       1.0  0.19197687479848602  0.23717500028630512  0.8658762143343739  1.0000
  H   H21       1.0  0.22683981957766816  0.33456087151288216  0.714864109903306  1.0000
  Zn  Zn1       1.0  0.8198997350715069  0.3182690287906107  0.3968683228486649  1.0000
  Zn  Zn2       1.0  0.9845310259811185  0.3107175217370872  0.39418310122350775  1.0000
  C   C28       1.0  0.9021956429906811  0.3119344265405117  0.6587671087527532  1.0000
  C   C29       1.0  0.9022369158188367  0.31705362293423395  0.13228442746032476  1.0000
  C   C30       1.0  0.9022155759043178  0.5431624271106157  0.3897826191234717  1.0000
  C   C31       1.0  0.9022169267217702  0.08582412106699033  0.40126899484735645  1.0000
  O   O1        1.0  0.9647079668830075  0.3163527870051892  0.18496446629286534  1.0000
  O   O2        1.0  0.9646759324522997  0.3069028947801637  0.604048633941052  1.0000
  O   O3        1.0  0.9646911861928225  0.4936224819829717  0.386841769192805  1.0000
  O   O4        1.0  0.9646926569738677  0.12963321034014227  0.40217122389019555  1.0000
  O   O5        1.0  0.8397380478981786  0.49935334276580756  0.38888020109072996  1.0000
  O   O6        1.0  0.8397227941605064  0.31263525943839077  0.6060869889899814  1.0000
  O   O7        1.0  0.8397548287837461  0.32208509202608027  0.18700108848573027  1.0000
  O   O8        1.0  0.8397395188626441  0.13536550740152384  0.4042079541427315  1.0000
