data_image0
_chemical_formula_structural       NC10NC5H10C12ClH9C12ClH9Zn2C4O8
_chemical_formula_sum              "N2 C43 H28 Cl2 Zn2 O8"
_cell_length_a       19.4436361288709
_cell_length_b       10.299768534541528
_cell_length_c       10.299771906710086
_cell_angle_alpha    85.54593327708469
_cell_angle_beta     89.71369758328774
_cell_angle_gamma    89.43641405984484

_space_group_name_H-M_alt    "P 1"
_space_group_IT_number       1

loop_
  _space_group_symop_operation_xyz
  'x, y, z'

loop_
  _atom_site_type_symbol
  _atom_site_label
  _atom_site_symmetry_multiplicity
  _atom_site_fract_x
  _atom_site_fract_y
  _atom_site_fract_z
  _atom_site_occupancy
  N   N1        1.0  0.6477595550110822  0.4097053570213345  0.562157326868612  1.0000
  C   C1        1.0  0.5889273632942433  0.41960036333672757  0.5765418026994262  1.0000
  C   C2        1.0  0.5156027559932641  0.43194073761251617  0.5945347448186042  1.0000
  C   C3        1.0  0.47339990733262044  0.3999886361235272  0.4998592793220362  1.0000
  C   C4        1.0  0.3974977382293395  0.41042425486129064  0.505187864552697  1.0000
  C   C5        1.0  0.3577696984273065  0.38562671635462703  0.612259363132994  1.0000
  C   C6        1.0  0.2816479449857264  0.38954932769483563  0.599300140770308  1.0000
  C   C7        1.0  0.24110800200864924  0.4471658114277534  0.6930737713026105  1.0000
  C   C8        1.0  0.1694436982294551  0.4508084325968962  0.6825300195124857  1.0000
  C   C9        1.0  0.1373245570898122  0.39643843143489405  0.5784991456457895  1.0000
  C   C10       1.0  0.0635309965784133  0.40014236742536036  0.5678001144149412  1.0000
  N   N2        1.0  0.004205979064963901  0.40312013753356485  0.559198802640964  1.0000
  C   C11       1.0  0.1771395466794942  0.33811469014060624  0.4851087172746016  1.0000
  C   C12       1.0  0.24882023456998903  0.33441796368195376  0.49540068848264135  1.0000
  C   C13       1.0  0.38591449948666745  0.345105328589006  0.7433523656198797  1.0000
  C   C14       1.0  0.4445919634313784  0.3882043530301352  0.7905970249707566  1.0000
  C   C15       1.0  0.48880498517746473  0.486095629573952  0.7162340896370887  1.0000
  H   H1        1.0  0.49548124106639707  0.37091429737395454  0.4095508684366651  1.0000
  H   H2        1.0  0.37278976984714535  0.4329621084395808  0.41203037433789413  1.0000
  H   H3        1.0  0.2649971330547784  0.4904181153903541  0.7739243450196418  1.0000
  H   H4        1.0  0.13911676918106913  0.49608813656238393  0.7554532062345973  1.0000
  H   H5        1.0  0.1527786131242748  0.29505788374101427  0.40459263661288025  1.0000
  H   H6        1.0  0.2784812749179701  0.2868945840075008  0.42317372935357866  1.0000
  H   H7        1.0  0.35494754162275605  0.28085932758739696  0.8075963578538502  1.0000
  H   H8        1.0  0.4597501963009732  0.3540919009958522  0.8885300599114119  1.0000
  H   H9        1.0  0.4587074134895929  0.5768201117174685  0.6909864502107732  1.0000
  H   H10       1.0  0.5321032962002883  0.5116516537889227  0.7793204331955392  1.0000
  C   C16       1.0  0.8259211863914045  0.025048495418430898  0.5606764781025622  1.0000
  C   C17       1.0  0.8304394211862376  0.03456996367318754  0.42417024689930316  1.0000
  C   C18       1.0  0.8327949688074593  0.9222539764420337  0.3550082939571515  1.0000
  C   C19       1.0  0.8305707837962258  0.7992798148928635  0.42418464653192695  1.0000
  C   C20       1.0  0.8260509309886592  0.7877668475105971  0.5606908291149673  1.0000
  C   C21       1.0  0.823751950224714  0.9012080447833786  0.6281723051462496  1.0000
  C   C22       1.0  0.8375757990513694  0.9333805470208747  0.21059607346951292  1.0000
  C   C23       1.0  0.7984412350007473  0.02766503428980416  0.13645719149738333  1.0000
  C   C24       1.0  0.8030023704678412  0.03794075023975374  0.0005397816727499322  1.0000
  C   C25       1.0  0.8466315061799482  0.9544558299514636  0.9370699509036169  1.0000
  C   C26       1.0  0.8857546699549046  0.8604842322914337  0.00969770915119028  1.0000
  C   C27       1.0  0.8813156762657864  0.8498140043666687  0.14562874844958218  1.0000
  Cl  Cl1       1.0  0.8522774931188377  0.9675957032575822  0.7665383369820011  1.0000
  H   H11       1.0  0.8241642261658512  0.34887475051963246  0.6126891116796025  1.0000
  H   H12       1.0  0.8330866134458991  0.12954858994566876  0.37141576162863066  1.0000
  H   H13       1.0  0.8314230478313369  0.7124455077025857  0.37123150407260436  1.0000
  H   H14       1.0  0.8202656435078247  0.8930944944771597  0.7334805845334986  1.0000
  H   H15       1.0  0.8243560407939773  0.45592561480248767  0.6127107484856322  1.0000
  H   H16       1.0  0.7636699158602324  0.09226989997691559  0.18348919057653457  1.0000
  H   H17       1.0  0.7724602985112033  0.1106350573831516  0.9446816001082352  1.0000
  H   H18       1.0  0.9197588041311061  0.7958474107905747  0.9609826021157492  1.0000
  H   H19       1.0  0.9127303874713466  0.7773973143066037  0.1999853841594017  1.0000
  C   C28       1.0  0.8259533374014739  0.40651461392590565  0.17931468232261505  1.0000
  C   C29       1.0  0.8883494327670313  0.4742443079282043  0.17247050578131695  1.0000
  C   C30       1.0  0.9199995629672892  0.5084547163300663  0.05187188855888624  1.0000
  C   C31       1.0  0.8884157429468674  0.4740279222737898  0.9372001747727867  1.0000
  C   C32       1.0  0.8260187637045475  0.4063008044719256  0.9420527027414723  1.0000
  C   C33       1.0  0.7951372976480097  0.3729225859752914  0.06357508496181197  1.0000
  C   C34       1.0  0.9860098855533178  0.5801056806953624  0.045685064119133985  1.0000
  C   C35       1.0  0.9968976659218397  0.6829089034005809  0.12539888817389855  1.0000
  C   C36       1.0  0.059059102039384026  0.75024731685582  0.11938807517492299  1.0000
  C   C37       1.0  0.11103815688502673  0.7158164600309311  0.03396790730415522  1.0000
  C   C38       1.0  0.10080712924846538  0.6138605645636666  0.9543774448642671  1.0000
  C   C39       1.0  0.038707307401828484  0.5463206924501876  0.9600121111743789  1.0000
  Cl  Cl2       1.0  0.1889878577607309  0.8004259743837638  0.026663071877411907  1.0000
  H   H20       1.0  0.802159164626769  0.38076384907725624  0.5093717462870619  1.0000
  H   H21       1.0  0.912961451590105  0.4989889374399594  0.2612475443301787  1.0000
  H   H22       1.0  0.9121222738467553  0.5017308369632185  0.8438944172243911  1.0000
  H   H23       1.0  0.7470011644462197  0.3206733723734687  0.06808685311429619  1.0000
  H   H24       1.0  0.8022557441795773  0.3804474954753775  0.6164517535315395  1.0000
  H   H25       1.0  0.9570301976689468  0.7122983607591555  0.1911043037341058  1.0000
  H   H26       1.0  0.066677606712507  0.8293799408934536  0.18096006823412059  1.0000
  H   H27       1.0  0.1409888357849034  0.5866124329845888  0.8883258896193119  1.0000
  H   H28       1.0  0.03223029510384512  0.466626705820264  0.898650167897725  1.0000
  Zn  Zn1       1.0  0.7506222946474271  0.40780153149318177  0.5613110727594348  1.0000
  Zn  Zn2       1.0  0.9013432300557898  0.40501335251549997  0.560055737731969  1.0000
  C   C40       1.0  0.8260039887725802  0.4011676072081782  0.797878773438879  1.0000
  C   C41       1.0  0.8259631820882241  0.41164888491721885  0.32348815084171223  1.0000
  C   C42       1.0  0.8260224165696257  0.6435983952646795  0.5555130101388666  1.0000
  C   C43       1.0  0.8259447026011958  0.16921653750947052  0.5658539837792762  1.0000
  O   O1        1.0  0.8831642945900225  0.41230822810152157  0.3713976907099885  1.0000
  O   O2        1.0  0.8831965786019575  0.39839112108833413  0.7490160894666265  1.0000
  O   O3        1.0  0.8832106883431415  0.5941570622848233  0.5533040272714693  1.0000
  O   O4        1.0  0.8831501334112193  0.21654229717385554  0.5671096559589939  1.0000
  O   O5        1.0  0.7688153398583393  0.5962725877877106  0.5542571549539632  1.0000
  O   O6        1.0  0.7688012303734798  0.400508206895353  0.7499691479331225  1.0000
  O   O7        1.0  0.7687689462656382  0.41442526909004335  0.3723491877742382  1.0000
  O   O8        1.0  0.7687547850907952  0.21865932884643866  0.568061250390949  1.0000
