data_image0
_chemical_formula_structural       NC12NC2H8C12SCH12C13NH9Zn2C4O8
_chemical_formula_sum              "N3 C44 H29 S1 Zn2 O8"
_cell_length_a       19.240039667572717
_cell_length_b       10.299776766347529
_cell_length_c       10.298528502251457
_cell_angle_alpha    85.54283687761513
_cell_angle_beta     89.99709375093414
_cell_angle_gamma    89.97991714870845

_space_group_name_H-M_alt    "P 1"
_space_group_IT_number       1

loop_
  _space_group_symop_operation_xyz
  'x, y, z'

loop_
  _atom_site_type_symbol
  _atom_site_label
  _atom_site_symmetry_multiplicity
  _atom_site_fract_x
  _atom_site_fract_y
  _atom_site_fract_z
  _atom_site_occupancy
  N   N1        1.0  0.6542492409515719  0.4217471367023646  0.5673527889907568  1.0000
  C   C1        1.0  0.5941008721207521  0.42174722071065335  0.5673527070483795  1.0000
  C   C2        1.0  0.5192828349613006  0.4217473380419092  0.5673525697332424  1.0000
  C   C3        1.0  0.4828184164075409  0.3572474502631679  0.6707737848878312  1.0000
  C   C4        1.0  0.41014768676877106  0.3571365406552238  0.6708603315131778  1.0000
  C   C5        1.0  0.3729506000127673  0.4217474306837679  0.5673523420284166  1.0000
  C   C6        1.0  0.4101291916036226  0.48635850763027366  0.4638445471195792  1.0000
  C   C7        1.0  0.48279989856944605  0.4862473624835793  0.463931216247069  1.0000
  C   C8        1.0  0.2957455095904841  0.42174735205600666  0.5673522465962937  1.0000
  C   C9        1.0  0.2585778185805144  0.3084734850563462  0.6092214181949163  1.0000
  C   C10       1.0  0.1859071126113336  0.30858041531891023  0.6091300877461614  1.0000
  C   C11       1.0  0.1494132226898751  0.42174722286371313  0.5673523075064457  1.0000
  C   C12       1.0  0.0745951855495302  0.42174710903713675  0.5673525561915254  1.0000
  N   N2        1.0  0.014446868699445996  0.42174706814282903  0.5673527646344965  1.0000
  C   C13       1.0  0.18586684361223368  0.5349141062533859  0.5255744743739099  1.0000
  C   C14       1.0  0.258537522215674  0.5350212166905088  0.5254829813210571  1.0000
  H   H1        1.0  0.5105404606595801  0.30731000277293696  0.7515221570164423  1.0000
  H   H2        1.0  0.3830613783301134  0.30799678838723343  0.7527243979927272  1.0000
  H   H3        1.0  0.38302896925045293  0.5354982869677785  0.3819804297868652  1.0000
  H   H4        1.0  0.5105076257918322  0.5361847096181289  0.383183119942359  1.0000
  H   H5        1.0  0.2856869781140887  0.2193084023121865  0.6403875681678315  1.0000
  H   H6        1.0  0.158207958288211  0.2203141498925909  0.6413293877713271  1.0000
  H   H7        1.0  0.15813617449177636  0.6231803471381383  0.4933751888995233  1.0000
  H   H8        1.0  0.28561484148566574  0.6241863786257381  0.49431678657576944  1.0000
  C   C15       1.0  0.8344169251533287  0.040381976787136044  0.5673511651871407  1.0000
  C   C16       1.0  0.838589867382168  0.028774161081752465  0.7038814188527629  1.0000
  C   C17       1.0  0.8406374141260611  0.9057537656662541  0.7730677443525686  1.0000
  C   C18       1.0  0.838456968288006  0.7934863795897575  0.7038966110243924  1.0000
  C   C19       1.0  0.8342858823242594  0.8031022480370108  0.5673656078865604  1.0000
  C   C20       1.0  0.8322888184532514  0.9269886371753436  0.49985714737419573  1.0000
  C   C21       1.0  0.8450442567784875  0.894537912523217  0.917501347899895  1.0000
  C   C22       1.0  0.8052646685966913  0.8010525135309278  0.991552917223517  1.0000
  C   C23       1.0  0.8094328970792052  0.7907315401554837  0.12747850938587327  1.0000
  C   C24       1.0  0.8532073780664291  0.8736167880296534  0.191159421070195  1.0000
  C   C25       1.0  0.8931527908310802  0.9665279370598177  0.11848108109868362  1.0000
  C   C26       1.0  0.8890864764733541  0.9771988026988979  0.9825450726683183  1.0000
  S   S1        1.0  0.8586324321025086  0.8599130215427117  0.3655706566091381  1.0000
  C   C27       1.0  0.7887908928621812  0.975968265171813  0.3851017229973466  1.0000
  H   H9        1.0  0.8328541881613585  0.37225856345011193  0.515326940915811  1.0000
  H   H10       1.0  0.8392989061602921  0.11558737707224577  0.7568460966424231  1.0000
  H   H11       1.0  0.8409782233367653  0.6984548538609479  0.756665128641506  1.0000
  H   H12       1.0  0.8290700461547819  0.9351750851454647  0.3945298619161406  1.0000
  H   H13       1.0  0.8326618099059429  0.4793125589799875  0.5153460499483178  1.0000
  H   H14       1.0  0.7702785540062654  0.7371043316807768  0.9444331485230144  1.0000
  H   H15       1.0  0.7783575212720716  0.7186504753343069  0.18320668893268244  1.0000
  H   H16       1.0  0.9273991522347812  0.030531458895833204  0.16718997485474074  1.0000
  H   H17       1.0  0.921039019838005  0.048910440271360496  0.9282301050260858  1.0000
  H   H18       1.0  0.8027056448769098  0.0723144476741737  0.3362182056203961  1.0000
  H   H19       1.0  0.7807346140856716  0.9866121658159938  0.49039361792556657  1.0000
  H   H20       1.0  0.739885360750402  0.9404499685466532  0.34297459489123305  1.0000
  C   C28       1.0  0.8343612503646002  0.4218685886329139  0.18594150280880697  1.0000
  C   C29       1.0  0.7621022885398588  0.4417303312944996  0.18345179530685374  1.0000
  C   C30       1.0  0.7254952840307151  0.45165420607042384  0.06504374715345129  1.0000
  C   C31       1.0  0.7620815866413858  0.44146547475975706  0.9481920866850762  1.0000
  C   C32       1.0  0.8343415355999352  0.42161561161443595  0.9487752174690554  1.0000
  C   C33       1.0  0.8700186648396254  0.41194151508558297  0.06811676130119837  1.0000
  C   C34       1.0  0.6491030286216505  0.47264633999237327  0.06341929718832717  1.0000
  C   C35       1.0  0.6184012919706448  0.5605764422540651  0.14433701378197927  1.0000
  C   C36       1.0  0.5464933484000944  0.5802892965727657  0.14268843965800038  1.0000
  C   C37       1.0  0.5043303117619107  0.5124314873779796  0.06033811026252534  1.0000
  C   C38       1.0  0.5343460359261312  0.42473771700976987  0.9795244055181396  1.0000
  C   C39       1.0  0.6062465767205633  0.40493049908599654  0.9809363676257871  1.0000
  C   C40       1.0  0.43030100001691307  0.5327765856166118  0.05876156672115674  1.0000
  N   N3        1.0  0.37078642525859834  0.5491327956842196  0.05749416705148836  1.0000
  H   H21       1.0  0.9708449150571233  0.38352934535210836  0.39803339208441724  1.0000
  H   H22       1.0  0.7340321413406595  0.44773809495668676  0.27396753676398977  1.0000
  H   H23       1.0  0.7342723018205131  0.45081259201763163  0.8564883037188579  1.0000
  H   H24       1.0  0.9257100426655301  0.39663839883421104  0.06930074801896335  1.0000
  H   H25       1.0  0.970953343522259  0.3849191330776054  0.7424891973918651  1.0000
  H   H26       1.0  0.6500947256714598  0.615344125906478  0.20764106661797643  1.0000
  H   H27       1.0  0.5238236260400657  0.6486788691128822  0.2053967803236718  1.0000
  H   H28       1.0  0.5021719754495476  0.3714201791558195  0.9156486514807655  1.0000
  H   H29       1.0  0.628234087718347  0.3354107510460442  0.9187747857639411  1.0000
  Zn  Zn1       1.0  0.7581945051963267  0.4217436472664324  0.5673602712640426  1.0000
  Zn  Zn2       1.0  0.9105016247721582  0.42173996068879444  0.5673558823935814  1.0000
  C   C41       1.0  0.8343445984846998  0.4164898284061038  0.8045832378375765  1.0000
  C   C42       1.0  0.8343531943879227  0.4269954180699185  0.33013304328558113  1.0000
  C   C43       1.0  0.8343071899567951  0.6589336034944944  0.5621870373745879  1.0000
  C   C44       1.0  0.8343905512103827  0.18455008267272732  0.5725293129679045  1.0000
  O   O1        1.0  0.8921502498259508  0.4287089641409417  0.37852337581498974  1.0000
  O   O2        1.0  0.8921451228358904  0.4147725047191515  0.75618920034547  1.0000
  O   O3        1.0  0.8921141357732194  0.6105489187940771  0.5604525535262564  1.0000
  O   O4        1.0  0.8921811849174398  0.23293255938969584  0.5742599252489641  1.0000
  O   O5        1.0  0.7765148930760999  0.6105510485682049  0.5604562284033257  1.0000
  O   O6        1.0  0.7765458798692708  0.41477619480475436  0.7561928059978702  1.0000
  O   O7        1.0  0.7765510069536946  0.4287126094888305  0.37852541986949806  1.0000
  O   O8        1.0  0.7765819420414203  0.23293619541657895  0.5742620666833781  1.0000
