data_image0
_chemical_formula_structural       NC12NC2H8C7NC2OH7C6SCNH5Zn2C4O8
_chemical_formula_sum              "N4 C34 H20 O9 S1 Zn2"
_cell_length_a       17.80743265337812
_cell_length_b       10.300333997791364
_cell_length_c       9.275272990362726
_cell_angle_alpha    85.04385528522843
_cell_angle_beta     91.20895717805207
_cell_angle_gamma    89.43519355652523

_space_group_name_H-M_alt    "P 1"
_space_group_IT_number       1

loop_
  _space_group_symop_operation_xyz
  'x, y, z'

loop_
  _atom_site_type_symbol
  _atom_site_label
  _atom_site_symmetry_multiplicity
  _atom_site_fract_x
  _atom_site_fract_y
  _atom_site_fract_z
  _atom_site_occupancy
  N   N1        1.0  0.711917421696556  0.4191175375157936  0.44598840312177845  1.0000
  C   C1        1.0  0.6613184671109468  0.4492894855287947  0.3696589253212579  1.0000
  C   C2        1.0  0.5983683250177789  0.4868211659707955  0.2747146635470703  1.0000
  C   C3        1.0  0.6105020735278194  0.5419719814468948  0.13403056317557827  1.0000
  C   C4        1.0  0.5494515832820476  0.5779787163879231  0.041748409791992895  1.0000
  C   C5        1.0  0.4761151629850778  0.5591039913375875  0.08941715537037154  1.0000
  C   C6        1.0  0.46300313605942206  0.503830189604789  0.23062139892836586  1.0000
  C   C7        1.0  0.5249109954875172  0.4678268561692712  0.3228852065093073  1.0000
  C   C8        1.0  0.38508931377682015  0.4838158020399032  0.28146814828677  1.0000
  C   C9        1.0  0.3658950893318044  0.5098633571945608  0.4226255879877816  1.0000
  C   C10       1.0  0.29252859256875263  0.4910298398363417  0.4703394031737871  1.0000
  C   C11       1.0  0.23741065953660603  0.4458870110375534  0.37782682668350653  1.0000
  C   C12       1.0  0.16190305893992582  0.4264881632744886  0.4270971784609843  1.0000
  N   N2        1.0  0.1012002949118988  0.41089279494833475  0.4667071518184287  1.0000
  C   C13       1.0  0.2559116471953041  0.4196656940592722  0.23727266821234982  1.0000
  C   C14       1.0  0.329226110802715  0.4385162862037697  0.1892745414351407  1.0000
  H   H1        1.0  0.6670783052097924  0.5571030490372357  0.09576847249734932  1.0000
  H   H2        1.0  0.5589635660630622  0.6209483163428571  0.9331085120953585  1.0000
  H   H3        1.0  0.42968637630360945  0.5893247271154269  0.016540866969489757  1.0000
  H   H4        1.0  0.5160978051750336  0.42347314658054586  0.4313868083426675  1.0000
  H   H5        1.0  0.4073606140273846  0.5464534664476569  0.49548350838719774  1.0000
  H   H6        1.0  0.27877026306005587  0.5119968773681056  0.5792358933231021  1.0000
  H   H7        1.0  0.21372790819947282  0.3843390930322478  0.1648735989659007  1.0000
  H   H8        1.0  0.3424550823574057  0.4160110809721722  0.08071505314513261  1.0000
  C   C15       1.0  0.9065629005056919  0.03365976117031977  0.4563572877966515  1.0000
  C   C16       1.0  0.8871672244117479  0.04449938133972541  0.30822564551617937  1.0000
  C   C17       1.0  0.8773815009716145  0.9328798749171521  0.23348771670286952  1.0000
  C   C18       1.0  0.8871652022738523  0.8092079089388167  0.3082128615499795  1.0000
  C   C19       1.0  0.9065619925569443  0.7963403008485848  0.4563510825584299  1.0000
  C   C20       1.0  0.9161528085947599  0.9091380805738967  0.5295969298064217  1.0000
  C   C21       1.0  0.8569676015701194  0.9460323789162014  0.07756798842734458  1.0000
  N   N3        1.0  0.8465009593939381  0.8438518402328214  0.9976204933177014  1.0000
  C   C22       1.0  0.8291064249195932  0.9006103335558787  0.86475913674944  1.0000
  C   C23       1.0  0.8296005637293525  0.033776030318325  0.8685362152892058  1.0000
  O   O1        1.0  0.8469584949524099  0.05868447591151393  0.001118885644612934  1.0000
  H   H9        1.0  0.9139452791604347  0.35695782872322024  0.5127917720603845  1.0000
  H   H10       1.0  0.879638248919561  0.13997720605618766  0.25072071602153123  1.0000
  H   H11       1.0  0.879651695173432  0.7228801870018569  0.25083034516803226  1.0000
  H   H12       1.0  0.931113532674936  0.8999935109060593  0.6438568596482298  1.0000
  H   H13       1.0  0.9139510634021222  0.464007475835645  0.5128154281553488  1.0000
  H   H14       1.0  0.8168504482135758  0.8480677820519796  0.7711452010222453  1.0000
  H   H15       1.0  0.8179155863633278  0.10634416546901296  0.7792861903214927  1.0000
  C   C24       1.0  0.907791524283574  0.4184245711392207  0.03261499438377857  1.0000
  C   C25       1.0  0.8505558972102987  0.4866825129333113  0.09732186111940755  1.0000
  C   C26       1.0  0.7907240980119593  0.5437256304979192  0.014490701482748225  1.0000
  C   C27       1.0  0.7870390611984324  0.5338550318447952  0.8654644484426419  1.0000
  C   C28       1.0  0.8438599934495068  0.46791162188259994  0.7988064143883506  1.0000
  C   C29       1.0  0.9053333582849765  0.4115755265117519  0.8800933555959727  1.0000
  S   S1        1.0  0.7095719433311293  0.6058435500025948  0.759675548898703  1.0000
  C   C30       1.0  0.756040068873841  0.7556070993673799  0.7259034567774711  1.0000
  N   N4        1.0  0.7865237619104624  0.8537805956428682  0.7037794700936351  1.0000
  H   H16       1.0  0.026877785648396834  0.356803928904974  0.32449058825991983  1.0000
  H   H17       1.0  0.851104392580365  0.4933208168247245  0.21326356427514037  1.0000
  H   H18       1.0  0.7468718686328554  0.5947915330670328  0.06664255703756994  1.0000
  H   H19       1.0  0.8409087299908584  0.4635924541762757  0.6825093016426842  1.0000
  H   H20       1.0  0.08392052696157924  0.32765986305507444  0.7923791323465479  1.0000
  Zn  Zn1       1.0  0.8242560291473755  0.4167405201806122  0.4519757052085318  1.0000
  Zn  Zn2       1.0  0.9888616508404292  0.4132591243600281  0.46073161976213717  1.0000
  C   C31       1.0  0.9057963237168015  0.4076968313971869  0.7199017683390461  1.0000
  C   C32       1.0  0.9073231533464705  0.42230441250018685  0.1928057938606451  1.0000
  C   C33       1.0  0.9065749579973089  0.6522240367649683  0.45060191450247866  1.0000
  C   C34       1.0  0.906544462676329  0.1777756474927259  0.46210572165319985  1.0000
  O   O2        1.0  0.9696329393713782  0.42227968574287317  0.24989011351345528  1.0000
  O   O3        1.0  0.9684183970481385  0.4050782829758559  0.6694625698618044  1.0000
  O   O4        1.0  0.9690463076400578  0.6025370994631599  0.452000987742742  1.0000
  O   O5        1.0  0.9690049729245217  0.2248208806075591  0.46735158445160035  1.0000
  O   O6        1.0  0.8441126508914849  0.6051787651225855  0.4453557375235149  1.0000
  O   O7        1.0  0.8434847405174014  0.4077215094644649  0.6628172426910366  1.0000
  O   O8        1.0  0.8446992879227919  0.42492288099791525  0.2432430514726336  1.0000
  O   O9        1.0  0.8440713211590744  0.22746406570011568  0.4607046305961425  1.0000
