data_image0
_chemical_formula_structural       NC11NC3H8C16H10C15H11Zn2C4O8
_chemical_formula_sum              "N2 C49 H29 Zn2 O8"
_cell_length_a       17.807433833752565
_cell_length_b       10.29914801576943
_cell_length_c       10.299157797200024
_cell_angle_alpha    85.52082761248347
_cell_angle_beta     88.54730741847368
_cell_angle_gamma    90.69784511463686

_space_group_name_H-M_alt    "P 1"
_space_group_IT_number       1

loop_
  _space_group_symop_operation_xyz
  'x, y, z'

loop_
  _atom_site_type_symbol
  _atom_site_label
  _atom_site_symmetry_multiplicity
  _atom_site_fract_x
  _atom_site_fract_y
  _atom_site_fract_z
  _atom_site_occupancy
  N   N1        1.0  0.7072781649154991  0.4390038879322318  0.5339979594509059  1.0000
  C   C1        1.0  0.6564691091932948  0.4042558418647302  0.6005775134363864  1.0000
  C   C2        1.0  0.5932575167002582  0.3610321376145043  0.683393982758145  1.0000
  C   C3        1.0  0.6050039133121464  0.2974426569340214  0.8061439256554661  1.0000
  C   C4        1.0  0.5436994250122049  0.25589950126306893  0.8866756743804697  1.0000
  C   C5        1.0  0.4704942957373853  0.2776323542729797  0.8450984328128764  1.0000
  C   C6        1.0  0.4577710217670766  0.3413765264353535  0.7218882091693085  1.0000
  C   C7        1.0  0.37999722125046076  0.36444037904342025  0.6775296480367448  1.0000
  C   C8        1.0  0.3611815089548563  0.3476023770443878  0.547950620370467  1.0000
  C   C9        1.0  0.2879464215968009  0.3692965108761084  0.5063293213304141  1.0000
  C   C10       1.0  0.23258382905023373  0.4081474274020645  0.5934666090013578  1.0000
  C   C11       1.0  0.1572118000690533  0.4305004576043512  0.5504836852673396  1.0000
  N   N2        1.0  0.0966180626957766  0.4484706332579904  0.515928542887782  1.0000
  C   C12       1.0  0.25070788542998496  0.4251961706647929  0.7225143927893761  1.0000
  C   C13       1.0  0.32389026483356226  0.4034670335265256  0.7643911466158801  1.0000
  C   C14       1.0  0.519932825081774  0.382915112264546  0.6413728788654972  1.0000
  H   H1        1.0  0.6614749215360923  0.28001750577575946  0.8395180893267602  1.0000
  H   H2        1.0  0.5529123352666768  0.20641691767980852  0.9814363031017939  1.0000
  H   H3        1.0  0.4238647500046406  0.2430559099878348  0.9085544971375266  1.0000
  H   H4        1.0  0.4028396329900054  0.3159767790873773  0.4792441694863501  1.0000
  H   H5        1.0  0.2744800124315586  0.35544214636007676  0.4062961830619687  1.0000
  H   H6        1.0  0.20833268792623208  0.4555987802143935  0.7907065569184742  1.0000
  H   H7        1.0  0.3368284166069834  0.41886698819018986  0.8642408856991375  1.0000
  H   H8        1.0  0.5114186374260741  0.43376009906229696  0.5468460148713139  1.0000
  C   C15       1.0  0.9018982452519091  0.062334624603099346  0.5251311010082705  1.0000
  C   C16       1.0  0.8847146014974652  0.07155407488053722  0.3924467439690089  1.0000
  C   C17       1.0  0.8760572984036845  0.9591001601931739  0.32500578450238266  1.0000
  C   C18       1.0  0.8848147946309101  0.8363048125473893  0.3920374797679086  1.0000
  C   C19       1.0  0.9020051541782617  0.8251300589932771  0.5248062830211273  1.0000
  C   C20       1.0  0.9104423778478828  0.9386588392414729  0.5905355290911087  1.0000
  C   C21       1.0  0.8578792611026628  0.9698988368847921  0.184641727922956  1.0000
  C   C22       1.0  0.8934033643961048  0.889802056595289  0.0977703138205608  1.0000
  C   C23       1.0  0.8762685766754691  0.9000899372112373  0.9656662959210452  1.0000
  C   C24       1.0  0.8234336425870152  0.9903711466777133  0.9186375006268103  1.0000
  C   C25       1.0  0.7877722612400645  0.0704452744648203  0.004231269202271459  1.0000
  C   C26       1.0  0.8048534902810531  0.060397351244348536  0.13635872060230936  1.0000
  C   C27       1.0  0.8058210835989935  0.0008395026255445439  0.7826226787732  1.0000
  C   C28       1.0  0.7910707554288445  0.009606650924126593  0.6687122361575312  1.0000
  C   C29       1.0  0.7737982952878109  0.019872862839649834  0.5353242683179366  1.0000
  C   C30       1.0  0.7590504424873525  0.02863868881547549  0.4214322196751037  1.0000
  H   H9        1.0  0.9084691783223865  0.3862620855177219  0.5761830760984545  1.0000
  H   H10       1.0  0.8790353979659562  0.16648626610902872  0.3407971732735262  1.0000
  H   H11       1.0  0.8771966050582728  0.7492411318076211  0.34097250915008215  1.0000
  H   H12       1.0  0.9236943662030822  0.9308316962033406  0.6928793371675144  1.0000
  H   H13       1.0  0.9339858634774786  0.5967203715439929  0.7756002772248002  1.0000
  H   H14       1.0  0.9351443566902924  0.8204019791692969  0.13168490273696112  1.0000
  H   H15       1.0  0.9043605387425395  0.8378685577107329  0.9001838920772567  1.0000
  H   H16       1.0  0.7466284954977864  0.14042461990459887  0.9689189891657399  1.0000
  H   H17       1.0  0.7758855827407766  0.12220785633485254  0.20107894279871075  1.0000
  H   H18       1.0  0.7461006403119734  0.036335825908218496  0.3214253949417727  1.0000
  C   C31       1.0  0.9018646157630444  0.4438364903728256  0.14358064830426964  1.0000
  C   C32       1.0  0.8236128343377597  0.4239529181583608  0.14739505502612205  1.0000
  C   C33       1.0  0.7840977133557131  0.413766277741116  0.03217933086198754  1.0000
  C   C34       1.0  0.823836018530848  0.42374959536840345  0.9121174898442526  1.0000
  C   C35       1.0  0.9020387646319677  0.44362818025621037  0.9063566772413464  1.0000
  C   C36       1.0  0.9405964085779093  0.45354978714082234  0.022639783936179388  1.0000
  C   C37       1.0  0.7013680570887283  0.3927502456126959  0.037258309141306116  1.0000
  C   C38       1.0  0.667552272911444  0.3049416304893909  0.9577571530210074  1.0000
  C   C39       1.0  0.5897002133284911  0.28525772081114265  0.962568903860548  1.0000
  C   C40       1.0  0.5442772126494893  0.3523395437859984  0.04747849789291503  1.0000
  C   C41       1.0  0.5776910645458443  0.4409840046791238  0.12602123796623466  1.0000
  C   C42       1.0  0.6555423672518346  0.46067209466582765  0.12135747122028454  1.0000
  C   C43       1.0  0.46040885958503047  0.33348371516510694  0.05031496528118629  1.0000
  C   C44       1.0  0.4266353982917114  0.42643789209870997  0.9544321784133648  1.0000
  C   C45       1.0  0.3988786534707294  0.5028744172603301  0.8755893461351866  1.0000
  H   H19       1.0  0.7933941616757385  0.4145925665245876  0.24033886997307685  1.0000
  H   H20       1.0  0.7935097107712541  0.41777374013527485  0.8228948415865232  1.0000
  H   H21       1.0  0.0009165529120502862  0.46887895971220567  0.01891203024656951  1.0000
  H   H22       1.0  0.9321212409503532  0.4512327848047386  0.5766683857369612  1.0000
  H   H23       1.0  0.7014023087291751  0.2503944026726319  0.892837282080015  1.0000
  H   H24       1.0  0.5648182109205605  0.21749133430547674  0.9001927232988092  1.0000
  H   H25       1.0  0.543402264948384  0.4952113592656342  0.1906166025526011  1.0000
  H   H26       1.0  0.6798119163116024  0.5305309956105282  0.18211995141358522  1.0000
  H   H27       1.0  0.4454012789592226  0.23287012633342363  0.027608260448928508  1.0000
  H   H28       1.0  0.43649698024208616  0.34834854352452105  0.14863956796088185  1.0000
  H   H29       1.0  0.37453166248278097  0.5699836327946126  0.8063715640141701  1.0000
  Zn  Zn1       1.0  0.8196332502310523  0.4417323091496881  0.5287910025255083  1.0000
  Zn  Zn2       1.0  0.9842629635484003  0.44573158861666273  0.5211460908802135  1.0000
  C   C46       1.0  0.9020034661634733  0.43849339886756766  0.7621779808246568  1.0000
  C   C47       1.0  0.9018945456261335  0.4489721813007977  0.28775915587381995  1.0000
  C   C48       1.0  0.9019799036985953  0.6809468148624691  0.5196924065071528  1.0000
  C   C49       1.0  0.9019180517114902  0.20651720348144445  0.5302448027066314  1.0000
  O   O1        1.0  0.9643807077963654  0.45220780556306145  0.3332455783865331  1.0000
  O   O2        1.0  0.964467446906139  0.43829215547646144  0.7108888738168698  1.0000
  O   O3        1.0  0.964447578018172  0.6340763343061318  0.5150800954648863  1.0000
  O   O4        1.0  0.9644005204864295  0.256423634686344  0.529054261963702  1.0000
  O   O5        1.0  0.83949563711298  0.6310402617166646  0.5208828340440208  1.0000
  O   O6        1.0  0.839515506200426  0.4352576433481037  0.7166915424826988  1.0000
  O   O7        1.0  0.839428766777719  0.44917324860231944  0.33904668559036955  1.0000
  O   O8        1.0  0.8394485794856433  0.25338906840930653  0.5348554665443547  1.0000
