data_image0
_chemical_formula_structural       NC9NC5H8C6NCH9C6BrH5Zn2C4O8
_chemical_formula_sum              "N3 C31 H22 Br1 Zn2 O8"
_cell_length_a       17.807436237873137
_cell_length_b       9.273386996610926
_cell_length_c       10.302972455390005
_cell_angle_alpha    85.46621647305027
_cell_angle_beta     89.39215201277248
_cell_angle_gamma    87.7895077601149

_space_group_name_H-M_alt    "P 1"
_space_group_IT_number       1

loop_
  _space_group_symop_operation_xyz
  'x, y, z'

loop_
  _atom_site_type_symbol
  _atom_site_label
  _atom_site_symmetry_multiplicity
  _atom_site_fract_x
  _atom_site_fract_y
  _atom_site_fract_z
  _atom_site_occupancy
  N   N1        1.0  0.6990026807739479  0.5420760217741261  0.5554279688742865  1.0000
  C   C1        1.0  0.6386283942164792  0.502973478169269  0.5444629100871152  1.0000
  C   C2        1.0  0.56352941738804  0.45433422012230906  0.5308235674438684  1.0000
  C   C3        1.0  0.5458708083586215  0.37497895884978427  0.4259674386645847  1.0000
  C   C4        1.0  0.4729542458505743  0.3276300940049477  0.4126420889830471  1.0000
  C   C5        1.0  0.4166498615854273  0.3592169818812587  0.5041410195758769  1.0000
  C   C6        1.0  0.339157655877892  0.30902502717354974  0.4900614907944594  1.0000
  C   C7        1.0  0.2764858758025491  0.39987182641590624  0.5158635487525383  1.0000
  C   C8        1.0  0.2034282387671423  0.3522973467158239  0.5025521942929212  1.0000
  C   C9        1.0  0.1396900601185649  0.44613475827746796  0.5287138116896932  1.0000
  N   N2        1.0  0.0884575881813887  0.5215735451185426  0.5497470349971114  1.0000
  C   C10       1.0  0.1924604002365577  0.21358940211217028  0.46341384532101304  1.0000
  C   C11       1.0  0.2542748944342159  0.12272721033654155  0.43760342217085074  1.0000
  C   C12       1.0  0.3272154903642515  0.16986327973771753  0.4507129242015379  1.0000
  C   C13       1.0  0.4349968792924213  0.4391215786804321  0.6092155298787043  1.0000
  C   C14       1.0  0.5079674669456088  0.4862588794728433  0.6223855789258224  1.0000
  H   H1        1.0  0.5884020199545715  0.34999401282548565  0.35431362733110405  1.0000
  H   H2        1.0  0.4603670339915694  0.26797924808422846  0.329833231533728  1.0000
  H   H3        1.0  0.2843927214294176  0.5081740233294436  0.5445780994565801  1.0000
  H   H4        1.0  0.1362016279577146  0.17576882220589196  0.4528758739614307  1.0000
  H   H5        1.0  0.2456647352487986  0.015336311473222123  0.4076875691739689  1.0000
  H   H6        1.0  0.3742547266906676  0.09680792568983622  0.4317739884275602  1.0000
  H   H7        1.0  0.3931858137907174  0.4635075272696037  0.682164258489836  1.0000
  H   H8        1.0  0.5210756325537237  0.5472660401745748  0.7041512376921422  1.0000
  C   C15       1.0  0.896044616695508  0.10804896938827623  0.553191726615428  1.0000
  C   C16       1.0  0.9092396521404621  0.19082993182119834  0.43561372388572855  1.0000
  C   C17       1.0  0.9153590298988992  0.12600489618886046  0.318131675897217  1.0000
  C   C18       1.0  0.908375941419213  0.9760718489831354  0.31522481952149284  1.0000
  C   C19       1.0  0.8965052219882353  0.8922582549564999  0.4323757337248684  1.0000
  C   C20       1.0  0.8914228741957917  0.9555891326396269  0.5519944838953557  1.0000
  N   N3        1.0  0.9138600457162174  0.9062438320321908  0.19532834793728956  1.0000
  C   C21       1.0  0.9263788744559623  0.9834812904077788  0.06845531966951923  1.0000
  H   H9        1.0  0.9113976482596714  0.36938544182479865  0.7661118028726166  1.0000
  H   H10       1.0  0.9130725961285019  0.30727404390860746  0.43396503440955553  1.0000
  H   H11       1.0  0.9248359835587806  0.19410811178710907  0.2298076077871882  1.0000
  H   H12       1.0  0.8929581663541404  0.7760439164124382  0.430379407510727  1.0000
  H   H13       1.0  0.9190920750300957  0.8227705611848998  0.8677982151609569  1.0000
  H   H14       1.0  0.9085471526601394  0.7941564010460753  0.19809799016307794  1.0000
  H   H15       1.0  0.8797922279084219  0.06450735723513157  0.046577957149932514  1.0000
  H   H16       1.0  0.9807714475190537  0.03816959920969509  0.06787140298135363  1.0000
  H   H17       1.0  0.9282732867977376  0.9059449682262465  0.9915694743448742  1.0000
  C   C22       1.0  0.8937337298864506  0.5318190503085569  0.17135054147893047  1.0000
  C   C23       1.0  0.916439735488972  0.3846555927983759  0.18018826535490295  1.0000
  C   C24       1.0  0.9277031812805738  0.3116545701225073  0.06763441774476586  1.0000
  C   C25       1.0  0.9164398624544432  0.3846555298054077  0.9451058729856096  1.0000
  C   C26       1.0  0.8937337654199241  0.5318190523860284  0.9338356230292147  1.0000
  C   C27       1.0  0.8824903720945677  0.6046900955145331  0.04761464844336861  1.0000
  Br  Br1       1.0  0.9585871068667914  0.11148684007036125  0.08130963997381202  1.0000
  H   H18       1.0  0.8851877038430819  0.5872102322544506  0.49532564518126326  1.0000
  H   H19       1.0  0.9254784687295393  0.326072519245586  0.27418987625409885  1.0000
  H   H20       1.0  0.9254787654083925  0.32607255195742013  0.8591089692250335  1.0000
  H   H21       1.0  0.8649785911491458  0.7181881991698222  0.03986060076528708  1.0000
  H   H22       1.0  0.8851866506500261  0.5872097459934971  0.6022920373658756  1.0000
  Zn  Zn1       1.0  0.8113909741680189  0.5361555992771165  0.5537960878154862  1.0000
  Zn  Zn2       1.0  0.9760693407373962  0.5274822043009009  0.551389605747562  1.0000
  C   C28       1.0  0.893763439880245  0.5260701820577304  0.7897177774788822  1.0000
  C   C29       1.0  0.8936986633786534  0.5375693476347151  0.31546801465749996  1.0000
  C   C30       1.0  0.8922926261241328  0.7953862178027826  0.5470473666445097  1.0000
  C   C31       1.0  0.8951694303961608  0.26825158104720565  0.5581384979779622  1.0000
  O   O1        1.0  0.9561815109542516  0.5362013960057397  0.3629219166759372  1.0000
  O   O2        1.0  0.9562676680693557  0.5208541389246617  0.7404370390688206  1.0000
  O   O3        1.0  0.955079124903543  0.7383302881260629  0.544478975578158  1.0000
  O   O4        1.0  0.9573699978701934  0.3187252600872368  0.5588798836307829  1.0000
  O   O5        1.0  0.8300902608385687  0.744912546452156  0.5463058107466483  1.0000
  O   O6        1.0  0.831278794546333  0.5274381310545874  0.7422638025656048  1.0000
  O   O7        1.0  0.8311926377553411  0.5427853378447447  0.3647471193597043  1.0000
  O   O8        1.0  0.8323811247245008  0.32530919160471883  0.5607051836647505  1.0000
