data_image0
_chemical_formula_structural       NC8NC6H8C13OH12C12SCH12Zn2C4O8
_chemical_formula_sum              "N2 C44 H32 O9 S1 Zn2"
_cell_length_a       17.457602349358154
_cell_length_b       10.299150109392551
_cell_length_c       10.299780138516091
_cell_angle_alpha    85.5566253413432
_cell_angle_beta     92.86764560524759
_cell_angle_gamma    91.67070309183428

_space_group_name_H-M_alt    "P 1"
_space_group_IT_number       1

loop_
  _space_group_symop_operation_xyz
  'x, y, z'

loop_
  _atom_site_type_symbol
  _atom_site_label
  _atom_site_symmetry_multiplicity
  _atom_site_fract_x
  _atom_site_fract_y
  _atom_site_fract_z
  _atom_site_occupancy
  N   N1        1.0  0.7222606478819641  0.45253548725220133  0.6260240225201557  1.0000
  C   C1        1.0  0.6611922803972766  0.4066041930483692  0.6154262161856572  1.0000
  C   C2        1.0  0.5852206463579945  0.34947138054806426  0.6022520844272167  1.0000
  C   C3        1.0  0.5266783450555855  0.38965732892686256  0.6771308313035065  1.0000
  C   C4        1.0  0.4521443424703135  0.33464309519400404  0.6645703049481968  1.0000
  C   C5        1.0  0.39001036189072685  0.3770736063619462  0.7438697862219861  1.0000
  C   C6        1.0  0.3154647074997543  0.39552727153574135  0.6881020558904005  1.0000
  C   C7        1.0  0.2569224294919479  0.4355293131650033  0.7630888207263402  1.0000
  C   C8        1.0  0.18093868412623443  0.45458823745021754  0.7051055101734313  1.0000
  N   N2        1.0  0.11986067055678751  0.4699052324994436  0.658487081944914  1.0000
  C   C9        1.0  0.27243355594185  0.4573209927232027  0.8943517161404335  1.0000
  C   C10       1.0  0.3461944012231819  0.4392564509041032  0.950506878021943  1.0000
  C   C11       1.0  0.4047250031507305  0.39943460650313356  0.8759777435585253  1.0000
  C   C12       1.0  0.43744153135966446  0.23876503873049576  0.5756984397828983  1.0000
  C   C13       1.0  0.4959720293254726  0.1988579032639656  0.5012195708101386  1.0000
  C   C14       1.0  0.5697212004619587  0.25398467742502806  0.5143299770671967  1.0000
  H   H1        1.0  0.5390027395996073  0.46487570954298246  0.7437297565472294  1.0000
  H   H2        1.0  0.30313079731327647  0.3805268081438671  0.5860883173411289  1.0000
  H   H3        1.0  0.22756196991669106  0.48822264445861746  0.953172932666888  1.0000
  H   H4        1.0  0.3580143352669082  0.4558145710477879  0.05214678477907686  1.0000
  H   H5        1.0  0.4612097301836758  0.3844549977400512  0.9220875803114965  1.0000
  H   H6        1.0  0.3809663330282644  0.1934234413800251  0.5650642950715232  1.0000
  H   H7        1.0  0.48416132984307025  0.12475571522251094  0.4334219611657093  1.0000
  H   H8        1.0  0.6145929539342617  0.22221341641683384  0.4560201894013749  1.0000
  C   C15       1.0  0.9211366224443983  0.07982405861826279  0.6424058740614762  1.0000
  C   C16       1.0  0.9197123728009692  0.0679959633471441  0.7790937672359666  1.0000
  C   C17       1.0  0.9189235149126841  0.9448612788417369  0.848128300015069  1.0000
  C   C18       1.0  0.9195644854945786  0.8327340561836211  0.7787183150135183  1.0000
  C   C19       1.0  0.9209920292607416  0.8426069133669393  0.6421170856310191  1.0000
  C   C20       1.0  0.9217718653287952  0.9666122811099838  0.5747593244415758  1.0000
  C   C21       1.0  0.9174101384039678  0.9333299284233386  0.9926379290969221  1.0000
  C   C22       1.0  0.8702295971877886  0.8384075846621425  0.05680390917869193  1.0000
  C   C23       1.0  0.8687800939491742  0.8276368943472874  0.1927852504483294  1.0000
  C   C24       1.0  0.9149881243525163  0.910651436705478  0.2670999368698952  1.0000
  C   C25       1.0  0.9614346211805815  0.00649552721026669  0.20351656472130442  1.0000
  C   C26       1.0  0.9629019331463324  0.01744279247506486  0.06753638879067891  1.0000
  C   C27       1.0  0.9118174070248504  0.9013613680076805  0.4129203332035799  1.0000
  O   O1        1.0  0.8544727269272976  0.98204286117439  0.44847701232648735  1.0000
  H   H9        1.0  0.9233265297272442  0.30942120404087614  0.3843603747049327  1.0000
  H   H10       1.0  0.9181497222089705  0.15471458775011412  0.8319722204887438  1.0000
  H   H11       1.0  0.9199979288714291  0.7376438592447765  0.8315846901207462  1.0000
  H   H12       1.0  0.9228708016610916  0.9749436250042959  0.46939453153843463  1.0000
  H   H13       1.0  0.9214894750568968  0.5189266366407088  0.5895712458587916  1.0000
  H   H14       1.0  0.8335439318838312  0.7737831689947209  0.0017024162945897797  1.0000
  H   H15       1.0  0.8314557829521305  0.7546893839325999  0.24011096288000208  1.0000
  H   H16       1.0  0.9967070601876374  0.07261136205932028  0.2592488412075824  1.0000
  H   H17       1.0  0.00025188388401287354  0.09083705898874682  0.021019374427747144  1.0000
  H   H18       1.0  0.968246716026205  0.9316658518294664  0.4576957294702001  1.0000
  H   H19       1.0  0.8993466357358271  0.7988047808062672  0.44971289741733667  1.0000
  H   H20       1.0  0.8547490578716621  0.9724019990492243  0.5451216291172569  1.0000
  C   C28       1.0  0.9210951833532276  0.4611055450186279  0.26091190949147003  1.0000
  C   C29       1.0  0.848160155776232  0.3999030769188891  0.2584724308797801  1.0000
  C   C30       1.0  0.8111730242961371  0.3690042478912188  0.1400868896429457  1.0000
  C   C31       1.0  0.8480973035555133  0.4001257881854501  0.02316332078440908  1.0000
  C   C32       1.0  0.921033475572425  0.46132548257239486  0.023611055565136756  1.0000
  C   C33       1.0  0.9571239592305671  0.4914734382303906  0.14297511752019298  1.0000
  C   C34       1.0  0.7340128265995048  0.30427214949633696  0.13856884350955376  1.0000
  C   C35       1.0  0.6771859464671166  0.34345390954792565  0.042957464287642674  1.0000
  C   C36       1.0  0.60457959125823  0.28249869227514973  0.04176657201739076  1.0000
  C   C37       1.0  0.5877410567727835  0.18194526461832064  0.1359907248894734  1.0000
  C   C38       1.0  0.6438852964689938  0.1419346855063981  0.2311410079021898  1.0000
  C   C39       1.0  0.7165391480540407  0.20271853396375006  0.23269824903925326  1.0000
  S   S1        1.0  0.4946086159884948  0.10359950442710764  0.1340150487316285  1.0000
  C   C40       1.0  0.455243849145793  0.21610421204228336  0.2394884915128623  1.0000
  H   H21       1.0  0.9488979643823354  0.48437945048990605  0.5892994033974321  1.0000
  H   H22       1.0  0.8194925146136232  0.37772669542269  0.34868873391062083  1.0000
  H   H23       1.0  0.8202812611065329  0.3749072784554304  0.931828717164933  1.0000
  H   H24       1.0  0.013390406886369279  0.5386877613150152  0.14408871422090286  1.0000
  H   H25       1.0  0.9488084903098348  0.4847030318079799  0.6963224103901825  1.0000
  H   H26       1.0  0.6885792502623423  0.4223257410512621  0.9701809830659005  1.0000
  H   H27       1.0  0.561346205277784  0.3139459308518704  0.9678932632779325  1.0000
  H   H28       1.0  0.631319276249987  0.06370765281894575  0.30394635153269717  1.0000
  H   H29       1.0  0.7593601507275056  0.1692021269813986  0.3064378174465067  1.0000
  H   H30       1.0  0.48768650100308036  0.2114909260403299  0.3351536540834205  1.0000
  H   H31       1.0  0.39436576867785644  0.18831390069437856  0.2552994201248455  1.0000
  H   H32       1.0  0.4581902900388033  0.31696301854401754  0.19310118841159052  1.0000
  Zn  Zn1       1.0  0.8369994258784984  0.45754453973165793  0.635399659636158  1.0000
  Zn  Zn2       1.0  0.005121879468572788  0.4648855344973079  0.6491220808485909  1.0000
  C   C41       1.0  0.9210444013306212  0.45610977655083046  0.8794463818254005  1.0000
  C   C42       1.0  0.9210787395874607  0.4663220166161876  0.40507563534727015  1.0000
  C   C43       1.0  0.9210158296308261  0.6984230910424141  0.6369964229706818  1.0000
  C   C44       1.0  0.9211072542090047  0.22400713922439272  0.6475256593454188  1.0000
  O   O2        1.0  0.984874816943438  0.47085291524264683  0.4586658881768586  1.0000
  O   O3        1.0  0.9848493763767169  0.4571495431914261  0.8362707557247516  1.0000
  O   O4        1.0  0.9848254441825123  0.6528205719480173  0.6404906278627782  1.0000
  O   O5        1.0  0.984898691774955  0.2751818932438861  0.6544459139830557  1.0000
  O   O6        1.0  0.8572225562001738  0.6472481784813704  0.630075821812072  1.0000
  O   O7        1.0  0.8572464881006873  0.45157871012127976  0.825855879840996  1.0000
  O   O8        1.0  0.8572719288533517  0.4652820364652781  0.448249450992964  1.0000
  O   O9        1.0  0.8572958036756143  0.2696110052049773  0.6440295741653179  1.0000
