data_image0
_chemical_formula_structural       NC12NC2H8C7OC3OC4H12C7OC3FC3H8Zn2C4O8
_chemical_formula_sum              "N2 C45 H28 O11 F1 Zn2"
_cell_length_a       17.80743265337812
_cell_length_b       10.299371110280156
_cell_length_c       10.29938172300155
_cell_angle_alpha    85.59389208423815
_cell_angle_beta     91.51787109396743
_cell_angle_gamma    89.44795274300792

_space_group_name_H-M_alt    "P 1"
_space_group_IT_number       1

loop_
  _space_group_symop_operation_xyz
  'x, y, z'

loop_
  _atom_site_type_symbol
  _atom_site_label
  _atom_site_symmetry_multiplicity
  _atom_site_fract_x
  _atom_site_fract_y
  _atom_site_fract_z
  _atom_site_occupancy
  N   N1        1.0  0.7078302639366016  0.4062754786614562  0.6018551530516179  1.0000
  C   C1        1.0  0.657025260079355  0.4358140503372174  0.5331684681099293  1.0000
  C   C2        1.0  0.5938188188415341  0.47255789045098145  0.44773087907079545  1.0000
  C   C3        1.0  0.6055727330043492  0.5265412894389669  0.32113318294990556  1.0000
  C   C4        1.0  0.5442730665625071  0.5617822428963168  0.23809099238617448  1.0000
  C   C5        1.0  0.4710653224172845  0.5433030674513394  0.28098670450077345  1.0000
  C   C6        1.0  0.45833454502207865  0.4892010037582051  0.4080524896192841  1.0000
  C   C7        1.0  0.5204915306063033  0.4539632993206415  0.4910781700584246  1.0000
  C   C8        1.0  0.380557993441989  0.46960854431547183  0.4538080336319812  1.0000
  C   C9        1.0  0.36175578719551  0.49683280447331013  0.5808584862907789  1.0000
  C   C10       1.0  0.2885180961577429  0.4783952145924961  0.6237947746840682  1.0000
  C   C11       1.0  0.23313947823144932  0.43247934103542546  0.5405184685645104  1.0000
  C   C12       1.0  0.1577648918797179  0.4134893400646919  0.5848554555805585  1.0000
  N   N2        1.0  0.0971690621502191  0.39822265643171373  0.6204993430427793  1.0000
  C   C13       1.0  0.2512500849032955  0.40508632929895766  0.41401091251794536  1.0000
  C   C14       1.0  0.3244349625223237  0.4235386284916418  0.3708187489640409  1.0000
  H   H1        1.0  0.662045678138145  0.5413548614783792  0.28670223861369704  1.0000
  H   H2        1.0  0.5534917824632132  0.6038503587494783  0.140329105481231  1.0000
  H   H3        1.0  0.42443999770608337  0.5729191743256332  0.21540791038851956  1.0000
  H   H4        1.0  0.5119710410447341  0.4105098314941389  0.5887151345236967  1.0000
  H   H5        1.0  0.4034267523714327  0.5340317904994543  0.6464427598053617  1.0000
  H   H6        1.0  0.27506230763366  0.5002700835349265  0.7218086588434076  1.0000
  H   H7        1.0  0.20886233770518123  0.3691547541848454  0.34884002187086116  1.0000
  H   H8        1.0  0.3373621145478983  0.4001282957227365  0.27310766015280974  1.0000
  C   C15       1.0  0.9024526291152922  0.020878622805035493  0.6110601742872794  1.0000
  C   C16       1.0  0.8938194034467163  0.030311235619668194  0.47466404607675367  1.0000
  C   C17       1.0  0.8886164172252928  0.9178994592671452  0.40599716146649656  1.0000
  C   C18       1.0  0.8938566412021399  0.7950426609428308  0.47497690976677504  1.0000
  C   C19       1.0  0.9025538922273245  0.7836094084316075  0.6113058714577855  1.0000
  C   C20       1.0  0.9066048636894454  0.8971294470993408  0.6785869103155678  1.0000
  C   C21       1.0  0.8802838221435213  0.92771536554465  0.2618536507356113  1.0000
  O   O1        1.0  0.9110900464729259  0.8420237616254218  0.19930704427452686  1.0000
  C   C22       1.0  0.8369947584900175  0.03466243584884299  0.18867109589660733  1.0000
  C   C23       1.0  0.8580147023667193  0.07935660916763876  0.06253735545564942  1.0000
  C   C24       1.0  0.8173915251089793  0.17919313985042734  0.991212469400852  1.0000
  O   O2        1.0  0.8413978014188167  0.22047315868604153  0.8662664267113603  1.0000
  C   C25       1.0  0.8056012910948596  0.32067873256949087  0.7831186966744057  1.0000
  C   C26       1.0  0.7543621347903862  0.23436989707753142  0.04668125923327415  1.0000
  C   C27       1.0  0.732571159734251  0.18940146198492935  0.1712610453142247  1.0000
  C   C28       1.0  0.7733277807261701  0.0898432880460762  0.24184015719466623  1.0000
  H   H9        1.0  0.9198908825318574  0.21039397994968811  0.8682836811067531  1.0000
  H   H10       1.0  0.8919680482148367  0.12527100971480906  0.4215466083826611  1.0000
  H   H11       1.0  0.8904113403132986  0.7082406950710574  0.42209040617714016  1.0000
  H   H12       1.0  0.9132609316361898  0.8890537825397292  0.7837383542641914  1.0000
  H   H13       1.0  0.9065198924870003  0.4517570135284544  0.6635817380973132  1.0000
  H   H14       1.0  0.906595618339393  0.03744468270920365  0.019491692168602134  1.0000
  H   H15       1.0  0.8362627800297796  0.3331127947319821  0.690717742229756  1.0000
  H   H16       1.0  0.8067002525791368  0.41412418042218535  0.8301895533530662  1.0000
  H   H17       1.0  0.7467299745697018  0.2936582285668629  0.7605356730429689  1.0000
  H   H18       1.0  0.7217388129784895  0.3115314582204518  0.9942314640308263  1.0000
  H   H19       1.0  0.6837065168250356  0.23148036320482346  0.21307141119093084  1.0000
  H   H20       1.0  0.754571003179083  0.05510652068744238  0.337318936069368  1.0000
  C   C29       1.0  0.9025664872649776  0.4021415617643316  0.22981834253387268  1.0000
  C   C30       1.0  0.9263231592642802  0.271195149971817  0.23977602280223698  1.0000
  C   C31       1.0  0.9391215884269892  0.20558875208039093  0.12762886028504883  1.0000
  C   C32       1.0  0.9262513450936735  0.27148977073989955  0.004506626396377335  1.0000
  C   C33       1.0  0.9024400002499665  0.40234642451365205  0.9925477049045517  1.0000
  C   C34       1.0  0.8909247309335798  0.4670151471232475  0.10580871535877077  1.0000
  C   C35       1.0  0.9634465714268448  0.06691657194921441  0.1379953717514919  1.0000
  O   O3        1.0  0.9402981505052179  0.9941509266237841  0.052682486203319945  1.0000
  C   C36       1.0  0.014037406189907564  0.010796837480975485  0.24504582590370647  1.0000
  C   C37       1.0  0.007967917700984373  0.8789609375275179  0.2899866603191614  1.0000
  C   C38       1.0  0.055999772101440026  0.8247601163854172  0.389826417032733  1.0000
  F   F1        1.0  0.04933033276506649  0.6978303216669027  0.43313571781975363  1.0000
  C   C39       1.0  0.11087790035442713  0.9012489844975468  0.444946783268255  1.0000
  C   C40       1.0  0.11802910208425321  0.03185705775970882  0.39999230949438047  1.0000
  C   C41       1.0  0.0701462758823792  0.08646656867742128  0.30023079512619155  1.0000
  H   H21       1.0  0.8566310887259881  0.6486629273622244  0.4183415722627115  1.0000
  H   H22       1.0  0.9340995336043786  0.21964361038566094  0.33493777126947033  1.0000
  H   H23       1.0  0.9355561439079721  0.22074760825754144  0.91791043529475  1.0000
  H   H24       1.0  0.8726097544412355  0.5679647791484952  0.09732801353012421  1.0000
  H   H25       1.0  0.9656387992713469  0.8183199030259687  0.24856728844572148  1.0000
  H   H26       1.0  0.14808397537322704  0.859270829548667  0.5221321317001091  1.0000
  H   H27       1.0  0.16094747636967943  0.09073815918871153  0.4420782710238744  1.0000
  H   H28       1.0  0.0775458510023681  0.18727288126433206  0.26535629025922186  1.0000
  Zn  Zn1       1.0  0.820185032557175  0.40394814283432545  0.6072429492786398  1.0000
  Zn  Zn2       1.0  0.9848142878730851  0.40053940160464957  0.6151221363367152  1.0000
  C   C42       1.0  0.9024615662159138  0.3971340649339003  0.8483737600594727  1.0000
  C   C43       1.0  0.9025395521570949  0.4073550809418416  0.3739915395892006  1.0000
  C   C44       1.0  0.9025317361674291  0.6394357351015127  0.6060841152508758  1.0000
  C   C45       1.0  0.9024693258105052  0.16505185164742528  0.6162812504444595  1.0000
  O   O4        1.0  0.9650064561564959  0.4078055203088753  0.42536749016023284  1.0000
  O   O5        1.0  0.9649444576715414  0.3940954900197553  0.8029775559960922  1.0000
  O   O6        1.0  0.9650002783653046  0.5897571708040523  0.6073269136999697  1.0000
  O   O7        1.0  0.964950579303298  0.21214384995185018  0.6210180323971308  1.0000
  O   O8        1.0  0.8400486849470781  0.5923436956517729  0.6013470505226137  1.0000
  O   O9        1.0  0.8399928644685057  0.3966835751589278  0.7969976240764639  1.0000
  O   O10       1.0  0.8400548632562962  0.4103935597714296  0.4193859968451072  1.0000
  O   O11       1.0  0.8399989863826492  0.21473188015178077  0.6150366364456197  1.0000
