data_image0
_chemical_formula_structural       NC8NC6H8C6OCH7C6ClH5Zn2C4O8
_chemical_formula_sum              "N2 C31 H20 O9 Cl1 Zn2"
_cell_length_a       17.457602349358154
_cell_length_b       9.273888216677433
_cell_length_c       10.302974078461048
_cell_angle_alpha    85.76054459610899
_cell_angle_beta     92.87591007631781
_cell_angle_gamma    91.10627454168798

_space_group_name_H-M_alt    "P 1"
_space_group_IT_number       1

loop_
  _space_group_symop_operation_xyz
  'x, y, z'

loop_
  _atom_site_type_symbol
  _atom_site_label
  _atom_site_symmetry_multiplicity
  _atom_site_fract_x
  _atom_site_fract_y
  _atom_site_fract_z
  _atom_site_occupancy
  N   N1        1.0  0.7138456251981515  0.61276504413205  0.6313323076065773  1.0000
  C   C1        1.0  0.653038891722939  0.561784358779639  0.6205818718216168  1.0000
  C   C2        1.0  0.5773926985020146  0.4983707296029831  0.6072178857101047  1.0000
  C   C3        1.0  0.518626905542647  0.5429534599692775  0.682211686699965  1.0000
  C   C4        1.0  0.4444062862199633  0.4818912725406162  0.6694683108624311  1.0000
  C   C5        1.0  0.38203635066837227  0.5289640690706858  0.7488892053579282  1.0000
  C   C6        1.0  0.30738062544905  0.5494656276631533  0.6931997076868037  1.0000
  C   C7        1.0  0.2486159157740354  0.593844185590129  0.768300873128008  1.0000
  C   C8        1.0  0.17251845748098896  0.6150182955749928  0.7103984700568398  1.0000
  N   N2        1.0  0.11134905519436471  0.6320351980218079  0.6638450697847134  1.0000
  C   C9        1.0  0.26401333281440703  0.6179910904222214  0.8996006175642537  1.0000
  C   C10       1.0  0.33788205696847057  0.597921337617136  0.9556787559825766  1.0000
  C   C11       1.0  0.3966340984674634  0.553742653451017  0.8810357024921471  1.0000
  C   C12       1.0  0.4302441059927559  0.3754943677942505  0.5802966490726815  1.0000
  C   C13       1.0  0.48899653513910224  0.33122099381963777  0.5057035579453253  1.0000
  C   C14       1.0  0.5624317252077898  0.39240792592599405  0.5189970400518431  1.0000
  H   H1        1.0  0.5305269058323754  0.6264251012136259  0.7490466886309144  1.0000
  H   H2        1.0  0.2951240256324266  0.5328476596666257  0.5911638882803703  1.0000
  H   H3        1.0  0.2189699916931305  0.6522733230223348  0.9585099569577237  1.0000
  H   H4        1.0  0.34961574738524576  0.6162684358645447  0.05734612625844793  1.0000
  H   H5        1.0  0.4532082439873398  0.5371004151067531  0.9270817976407113  1.0000
  H   H6        1.0  0.3740271684061252  0.3251682619663895  0.5695118830413342  1.0000
  H   H7        1.0  0.4776037516421712  0.24898871836933847  0.4376739909835352  1.0000
  H   H8        1.0  0.6074802460281954  0.35716025684289754  0.4605960391963315  1.0000
  C   C15       1.0  0.9148530911081435  0.1990473429838258  0.6464467976307942  1.0000
  C   C16       1.0  0.8969421963532841  0.28144184450663956  0.5290231244428059  1.0000
  C   C17       1.0  0.8725061343930676  0.21553259896234842  0.4161590690016346  1.0000
  C   C18       1.0  0.8658391185905188  0.06422851162533671  0.42029016948936593  1.0000
  C   C19       1.0  0.8845526409286102  0.9806778158127802  0.5352822337960272  1.0000
  C   C20       1.0  0.9103489613087703  0.04574212649219756  0.6487423788999567  1.0000
  O   O1        1.0  0.855060107195617  0.3041167375190046  0.30259020112161217  1.0000
  C   C21       1.0  0.8294609723060968  0.25195113592427765  0.18102312578910018  1.0000
  H   H9        1.0  0.9211000037048306  0.2760347545756923  0.9664383903594891  1.0000
  H   H10       1.0  0.9001816532249982  0.39847445596280234  0.5254400151211931  1.0000
  H   H11       1.0  0.8469073875969986  0.009873791051710375  0.33477807512995206  1.0000
  H   H12       1.0  0.8805669941709227  0.8640161816540869  0.5345239448866781  1.0000
  H   H13       1.0  0.9177703441583615  0.7471712460440215  0.8636323833986691  1.0000
  H   H14       1.0  0.7744207507886166  0.1911588855118651  0.1914833862733143  1.0000
  H   H15       1.0  0.8201326656180283  0.3451843324360704  0.1084843222655232  1.0000
  C   C22       1.0  0.9126010413665935  0.6223947561490069  0.26635209431678986  1.0000
  C   C23       1.0  0.9000555553908869  0.4720132540517119  0.274088522966498  1.0000
  C   C24       1.0  0.8938308667937629  0.3973980505864739  0.16097033986129408  1.0000
  C   C25       1.0  0.9000555892622948  0.4720133371331221  0.03898062702198457  1.0000
  C   C26       1.0  0.9126010398060077  0.6223946816373511  0.028837113028426398  1.0000
  C   C27       1.0  0.9188126427824462  0.696852417911483  0.14316821508221178  1.0000
  Cl  Cl1       1.0  0.8781585769274922  0.2095358291430414  0.17213852011348  1.0000
  H   H16       1.0  0.9173271516668258  0.6790408938471548  0.5907408904377167  1.0000
  H   H17       1.0  0.8950659330884589  0.4122030194591406  0.3676907118707273  1.0000
  H   H18       1.0  0.8950659867961254  0.4122030014862073  0.9524897501249767  1.0000
  H   H19       1.0  0.9284880637070652  0.812831144312008  0.1362733212570444  1.0000
  H   H20       1.0  0.9173270057829644  0.6790408740140598  0.6977132479840074  1.0000
  Zn  Zn1       1.0  0.828556549146812  0.6183221281808772  0.6407222739578086  1.0000
  Zn  Zn2       1.0  0.996638179873831  0.626466293958727  0.6544657003896082  1.0000
  C   C28       1.0  0.9126298702009227  0.6166514031447827  0.8846953789841936  1.0000
  C   C29       1.0  0.9125666845894105  0.6281389269402626  0.41049287779695526  1.0000
  C   C30       1.0  0.9111964035258733  0.8856985998246489  0.6431346838828125  1.0000
  C   C31       1.0  0.9140001031239526  0.3590899954086885  0.6520536327283073  1.0000
  O   O2        1.0  0.9763412904949835  0.6331511021307311  0.46408338312945974  1.0000
  O   O3        1.0  0.9764253386584912  0.6178193737586745  0.8415354396414112  1.0000
  O   O4        1.0  0.9752669363225275  0.8350783459801052  0.6464734030199663  1.0000
  O   O5        1.0  0.9774996354212127  0.4158921374432148  0.6591453177467762  1.0000
  O   O6        1.0  0.8476950362414111  0.8288962819187549  0.6360426519038593  1.0000
  O   O7        1.0  0.8488534293598626  0.6116390417713977  0.8311046239985516  1.0000
  O   O8        1.0  0.8487693815146435  0.62697071990792  0.45365100647147605  1.0000
  O   O9        1.0  0.8499277264925875  0.40971174490885454  0.6487130383961396  1.0000
