data_image0
_chemical_formula_structural       NC8NC6H8C6NCH9C7F3H5Zn2C4O8
_chemical_formula_sum              "N3 C32 H22 F3 Zn2 O8"
_cell_length_a       17.457602349358154
_cell_length_b       9.273386996610926
_cell_length_c       9.272291681409872
_cell_angle_alpha    85.970276704532
_cell_angle_beta     93.27365386630078
_cell_angle_gamma    91.0935878010965

_space_group_name_H-M_alt    "P 1"
_space_group_IT_number       1

loop_
  _space_group_symop_operation_xyz
  'x, y, z'

loop_
  _atom_site_type_symbol
  _atom_site_label
  _atom_site_symmetry_multiplicity
  _atom_site_fract_x
  _atom_site_fract_y
  _atom_site_fract_z
  _atom_site_occupancy
  N   N1        1.0  0.7076846685289909  0.5998248540409052  0.47128342483487945  1.0000
  C   C1        1.0  0.6468467999969124  0.5487174070383452  0.4596052869993752  1.0000
  C   C2        1.0  0.5711619130079439  0.48514618366480855  0.4450882658818529  1.0000
  C   C3        1.0  0.5126976514922118  0.5304904227199123  0.5281635455396678  1.0000
  C   C4        1.0  0.43844029619911107  0.4692777254005543  0.514323751925637  1.0000
  C   C5        1.0  0.3763897307748593  0.517156928647598  0.6023039311480758  1.0000
  C   C6        1.0  0.3014955569380807  0.5371141580345486  0.5403357609424904  1.0000
  C   C7        1.0  0.24303288305607895  0.5822552090863272  0.6235313619555831  1.0000
  C   C8        1.0  0.16668753956393434  0.6028633040440494  0.5591015294367159  1.0000
  N   N2        1.0  0.1053188400485665  0.6194251289213152  0.5073001271515649  1.0000
  C   C9        1.0  0.25897284027228806  0.6077140926871476  0.7692592435311612  1.0000
  C   C10       1.0  0.33308152123767715  0.588192694695377  0.8316568960607735  1.0000
  C   C11       1.0  0.3915333885463019  0.5432561406040806  0.7489691491114407  1.0000
  C   C12       1.0  0.4239340535216243  0.3619542756816976  0.41581908910203136  1.0000
  C   C13       1.0  0.4823865430906449  0.31692349001934916  0.33318733238025366  1.0000
  C   C14       1.0  0.555860735816838  0.37826643811627747  0.34763755977357813  1.0000
  H   H1        1.0  0.52485451954798  0.614657988800229  0.6019744340896327  1.0000
  H   H2        1.0  0.2888167554780645  0.5194774708956231  0.42707641688687104  1.0000
  H   H3        1.0  0.2141665592074458  0.6425942162355535  0.8345205909495537  1.0000
  H   H4        1.0  0.34523540364132826  0.607555539647533  0.9444980029234914  1.0000
  H   H5        1.0  0.4483046081929332  0.5270640954083865  0.8002050779699896  1.0000
  H   H6        1.0  0.367685659832604  0.3115013260082411  0.4040994279431261  1.0000
  H   H7        1.0  0.4707315601984525  0.23398392920888944  0.25804305988726917  1.0000
  H   H8        1.0  0.6006745841828077  0.34242553959149036  0.2829458914389023  1.0000
  C   C15       1.0  0.9088675151144615  0.1860937977388677  0.4902144943731275  1.0000
  C   C16       1.0  0.9218487811715756  0.2690690561138273  0.36103837924998544  1.0000
  C   C17       1.0  0.9276057573819485  0.20370965464983273  0.231199848318983  1.0000
  C   C18       1.0  0.9204634291885  0.053027704436049206  0.22721185444778236  1.0000
  C   C19       1.0  0.908832586975845  0.9691521361180171  0.35605747418411476  1.0000
  C   C20       1.0  0.9041434189061391  0.03314550919899538  0.4883822444573736  1.0000
  N   N3        1.0  0.9255616545038357  0.9825758647382149  0.09462224471599257  1.0000
  C   C21       1.0  0.9378136005652897  0.059845688639679415  0.9550473631238594  1.0000
  H   H9        1.0  0.9254343261902547  0.4511254896432446  0.728402973392001  1.0000
  H   H10       1.0  0.9257555632545732  0.3858920518055493  0.35962352829881855  1.0000
  H   H11       1.0  0.9369129640432469  0.27191395894170256  0.13411604234221275  1.0000
  H   H12       1.0  0.9052024719360103  0.85255223664013  0.35345437194831164  1.0000
  H   H13       1.0  0.9337160573568294  0.9063127133205631  0.8421964312115628  1.0000
  H   H14       1.0  0.9201484390888375  0.8699680630735512  0.09712144756598273  1.0000
  H   H15       1.0  0.8901542190648349  0.1358509121794433  0.9256819502794579  1.0000
  H   H16       1.0  0.9933493937087965  0.12013695046043282  0.9603102919020335  1.0000
  H   H17       1.0  0.9394263890723928  0.9817420360066857  0.8698454818104469  1.0000
  C   C22       1.0  0.9049111496171851  0.6058378880042923  0.065799374346881  1.0000
  C   C23       1.0  0.9570191845958582  0.5176120789179609  0.15088905710937883  1.0000
  C   C24       1.0  0.013224385801299476  0.4425154218727536  0.08731202893750356  1.0000
  C   C25       1.0  0.019555763724364194  0.45540500399915423  0.9369723220770908  1.0000
  C   C26       1.0  0.9659455742999951  0.538777342625188  0.8505843024276574  1.0000
  C   C27       1.0  0.9080997878120953  0.6134014754359995  0.912797297608352  1.0000
  C   C28       1.0  0.07894786236300844  0.3709612038832466  0.8679113970299159  1.0000
  F   F1        1.0  0.14332762598099325  0.34977551496036585  0.9607022731486845  1.0000
  F   F2        1.0  0.10151016131324343  0.4442695274207506  0.7417629397784038  1.0000
  F   F3        1.0  0.04806935141753943  0.23797560309017965  0.835373344224755  1.0000
  H   H18       1.0  0.7952390726935614  0.8919553489660536  0.13547298726048695  1.0000
  H   H19       1.0  0.9552963527803877  0.5089140799366285  0.26779397108687286  1.0000
  H   H20       1.0  0.05226169455270324  0.3751793940747419  0.15617607124890182  1.0000
  H   H21       1.0  0.9681116534286609  0.5427322399217662  0.7337863289669575  1.0000
  H   H22       1.0  0.7334506080021561  0.7429946686962962  0.7834066212526296  1.0000
  Zn  Zn1       1.0  0.8224333540092441  0.605477276604363  0.4816854023153838  1.0000
  Zn  Zn2       1.0  0.9905702507170446  0.6137609867966662  0.49690998235951717  1.0000
  C   C29       1.0  0.9075274081293578  0.6062260218019486  0.7527088589921779  1.0000
  C   C30       1.0  0.9054780230304331  0.6130141530991937  0.22588682954600992  1.0000
  C   C31       1.0  0.9050108021461423  0.8729832064255428  0.4829813227057443  1.0000
  C   C32       1.0  0.9079945815937229  0.34625523353267385  0.49561444127309057  1.0000
  O   O1        1.0  0.969475382065882  0.6185599059468783  0.2853913043216163  1.0000
  O   O2        1.0  0.9711420677773608  0.6069663215746675  0.7047590754057786  1.0000
  O   O3        1.0  0.9691090221144937  0.8223760927764996  0.48695210035689973  1.0000
  O   O4        1.0  0.9715083698903975  0.40315014127008714  0.5031981660213505  1.0000
  O   O5        1.0  0.8414951774589836  0.8160881193056204  0.4753972134505593  1.0000
  O   O6        1.0  0.8435282131648675  0.6006800802213914  0.6932041078558013  1.0000
  O   O7        1.0  0.8418615212572327  0.6122735988535061  0.27383460299536266  1.0000
  O   O8        1.0  0.843894509543191  0.39686382482635163  0.4916415728412509  1.0000
