data_image0
_chemical_formula_structural       NC10NC5H10C12SCH12C11NCOCH11Zn2C4O8
_chemical_formula_sum              "N3 C45 H33 S1 O9 Zn2"
_cell_length_a       19.4436361288709
_cell_length_b       10.299776766347529
_cell_length_c       10.299158637457994
_cell_angle_alpha    85.5824420436923
_cell_angle_beta     89.6864852280966
_cell_angle_gamma    89.39962546058797

_space_group_name_H-M_alt    "P 1"
_space_group_IT_number       1

loop_
  _space_group_symop_operation_xyz
  'x, y, z'

loop_
  _atom_site_type_symbol
  _atom_site_label
  _atom_site_symmetry_multiplicity
  _atom_site_fract_x
  _atom_site_fract_y
  _atom_site_fract_z
  _atom_site_occupancy
  N   N1        1.0  0.6476467397341877  0.40878549406511655  0.5621418772697626  1.0000
  C   C1        1.0  0.5888075137567762  0.41868983755913036  0.5765265422219092  1.0000
  C   C2        1.0  0.5154741201357843  0.4310418911160727  0.5945197208519825  1.0000
  C   C3        1.0  0.4733062851144636  0.399028520544511  0.4998430583762665  1.0000
  C   C4        1.0  0.397399207393947  0.40946763614127724  0.5051717234149105  1.0000
  C   C5        1.0  0.3576522959035558  0.3847390468278527  0.6122444879450226  1.0000
  C   C6        1.0  0.28153251319265005  0.38865331818642246  0.5992851136869581  1.0000
  C   C7        1.0  0.24094905686294493  0.4463306331199921  0.6930599671950317  1.0000
  C   C8        1.0  0.1692862030330936  0.44996647132926726  0.6825160924710316  1.0000
  C   C9        1.0  0.1372120868729826  0.3955290386544288  0.5784838756072617  1.0000
  C   C10       1.0  0.0634199950558198  0.3992260918343846  0.5677847196431169  1.0000
  N   N2        1.0  0.0040961582577683005  0.4021983286195499  0.5591833075919126  1.0000
  C   C11       1.0  0.1770707326597155  0.3371447094531839  0.48509222790032114  1.0000
  C   C12       1.0  0.24875005321654814  0.3334546031882164  0.4953843189034363  1.0000
  C   C13       1.0  0.38577744749721055  0.34430201999362375  0.743339025765203  1.0000
  C   C14       1.0  0.4444282025116099  0.38743177113686916  0.7905843215349107  1.0000
  C   C15       1.0  0.48862689150338806  0.4852756140424044  0.7162206231522688  1.0000
  H   H1        1.0  0.4954205398860839  0.3698957467240229  0.40953350774612907  1.0000
  H   H2        1.0  0.3727073308270537  0.43194550592038167  0.41201313314778365  1.0000
  H   H3        1.0  0.2648028562940343  0.4896353490102779  0.7739115860966693  1.0000
  H   H4        1.0  0.1389252744806777  0.49529348341878165  0.7554402309247236  1.0000
  H   H5        1.0  0.15274497891520453  0.29403570805618684  0.4045751064019474  1.0000
  H   H6        1.0  0.2784456786926272  0.28588435204194673  0.42315641327559333  1.0000
  H   H7        1.0  0.3548159586304033  0.28009711215803135  0.8075837064865181  1.0000
  H   H8        1.0  0.4595730627402906  0.3533823193853858  0.8885184979149078  1.0000
  H   H9        1.0  0.4585048989192488  0.5759843141894688  0.6909728074474575  1.0000
  H   H10       1.0  0.5319004207074411  0.5108724884234338  0.7793077704516408  1.0000
  C   C16       1.0  0.8259395893506858  0.02412551820503083  0.5606604565433113  1.0000
  C   C17       1.0  0.8300495091944352  0.012536409520321545  0.697140928169146  1.0000
  C   C18       1.0  0.8320658175595438  0.8895267205620908  0.7663025777176569  1.0000
  C   C19       1.0  0.8299179908747554  0.7772510689924005  0.69715721017438  1.0000
  C   C20       1.0  0.8258099080872865  0.7868481959509466  0.5606759739151359  1.0000
  C   C21       1.0  0.8238433164148977  0.9107241231546894  0.4931915841352318  1.0000
  C   C22       1.0  0.8364060693434385  0.8783307974071988  0.910683580393798  1.0000
  C   C23       1.0  0.7970297998549073  0.7856244042225933  0.9850534659588944  1.0000
  C   C24       1.0  0.8011351418012268  0.775321803249899  0.12092938347814264  1.0000
  C   C25       1.0  0.8444449619259532  0.8574508451169287  0.18424352272487765  1.0000
  C   C26       1.0  0.8839851332945599  0.9495809115372956  0.11124534854252653  1.0000
  C   C27       1.0  0.8799806464442723  0.9602315337707249  0.9753581788724905  1.0000
  S   S1        1.0  0.8497885263284205  0.8437692513345315  0.35859038935598553  1.0000
  C   C28       1.0  0.7806709583542796  0.9611153143000898  0.37869287684575526  1.0000
  H   H11       1.0  0.8244005822110992  0.35599447660136163  0.5086549769052753  1.0000
  H   H12       1.0  0.8307435667513274  0.09937352029393276  0.7500937663060295  1.0000
  H   H13       1.0  0.8324054348384458  0.6822101606391313  0.7498990258835323  1.0000
  H   H14       1.0  0.8206731582618844  0.9188961307635967  0.38790269950113476  1.0000
  H   H15       1.0  0.8242102031113306  0.46305200354588855  0.5086756638552239  1.0000
  H   H16       1.0  0.7624145165998201  0.7222832371136824  0.9382264058440006  1.0000
  H   H17       1.0  0.7703751384443382  0.703847813679916  0.17690646897490558  1.0000
  H   H18       1.0  0.9178681331609586  0.012992052829701613  0.15966742913296483  1.0000
  H   H19       1.0  0.911608486642452  0.0313210384382594  0.920786940194132  1.0000
  H   H20       1.0  0.7944479297813158  0.05717300991040709  0.3297006238817639  1.0000
  H   H21       1.0  0.7726833993133417  0.9719798230645886  0.48403898196560724  1.0000
  H   H22       1.0  0.7322803871221838  0.9264620583125627  0.336972216585574  1.0000
  C   C29       1.0  0.8259392441596072  0.40534770214792065  0.17929457393419557  1.0000
  C   C30       1.0  0.8275140456248339  0.5420205040374249  0.16797054318887628  1.0000
  C   C31       1.0  0.8282584861841134  0.6114563594828284  0.0450719215088462  1.0000
  C   C32       1.0  0.8273823192030885  0.5423828045168602  0.9326601647341891  1.0000
  C   C33       1.0  0.8258102319420987  0.405626044412704  0.9420418652138625  1.0000
  C   C34       1.0  0.8251013816577131  0.33794932271772665  0.0657468707204365  1.0000
  C   C35       1.0  0.8299252571346799  0.7560393976115458  0.03406601825493416  1.0000
  C   C36       1.0  0.8721285777058343  0.8230927133805296  0.11628439618194618  1.0000
  C   C37       1.0  0.8335408912815082  0.03087972513178316  0.011981484912821022  1.0000
  C   C38       1.0  0.7905184268246261  0.9642019315351862  0.9315529920515646  1.0000
  C   C39       1.0  0.7889725349133669  0.8281691583547798  0.941779810591698  1.0000
  N   N3        1.0  0.8332544180886179  0.170929603812088  0.0007511315637138664  1.0000
  C   C40       1.0  0.8921689395697316  0.24882797358476116  0.02349520134253313  1.0000
  O   O1        1.0  0.9514779350817554  0.1983197697894452  0.031518137301919096  1.0000
  C   C41       1.0  0.8840765839167257  0.39279124253318815  0.028167645900043056  1.0000
  H   H23       1.0  0.8272044009520424  0.5948429495758889  0.254924966590407  1.0000
  H   H24       1.0  0.8288644150726919  0.5953684920757372  0.8376772569516282  1.0000
  H   H25       1.0  0.823889054970459  0.23253035396544933  0.07376644352050832  1.0000
  H   H26       1.0  0.8232605507014521  0.14748172025266856  0.7524536518233282  1.0000
  H   H27       1.0  0.9043282074687627  0.7702711419488895  0.1882086927522588  1.0000
  H   H28       1.0  0.7583382317477254  0.017898142457090763  0.8601978412842408  1.0000
  H   H29       1.0  0.7549897053189227  0.7794112893239424  0.8787136591847172  1.0000
  H   H30       1.0  0.7886615640973704  0.21920820339577765  0.9661754147415691  1.0000
  H   H31       1.0  0.8357102070302621  0.41539951512517126  0.0799872984086365  1.0000
  H   H32       1.0  0.8822194523914028  0.4394924403507807  0.9274651468674991  1.0000
  H   H33       1.0  0.9279494829712449  0.4327477106097257  0.08045903296758161  1.0000
  Zn  Zn1       1.0  0.7505103427754763  0.4068811118032856  0.5612956101309606  1.0000
  Zn  Zn2       1.0  0.9012325467288346  0.4040921071675672  0.56004025582711  1.0000
  C   C42       1.0  0.8258339613463919  0.4003997966465036  0.7978661771956367  1.0000
  C   C43       1.0  0.8259105737394876  0.41057503052351185  0.3234698025553202  1.0000
  C   C44       1.0  0.8258317373600953  0.6426755576648373  0.5554978166030213  1.0000
  C   C45       1.0  0.825912746548453  0.16829771019011328  0.5658382327840883  1.0000
  O   O2        1.0  0.8830992435529942  0.4112652912512804  0.3713799258064674  1.0000
  O   O3        1.0  0.8830399570889195  0.3975917660811127  0.749002895204227  1.0000
  O   O4        1.0  0.8830373899031277  0.593232521859258  0.5532887356789604  1.0000
  O   O5        1.0  0.8831017593223981  0.21562454567946113  0.5670939883844187  1.0000
  O   O6        1.0  0.7686410787478227  0.5953486742445532  0.5542418779952111  1.0000
  O   O7        1.0  0.7686436456768555  0.3997094787346336  0.7499559683058858  1.0000
  O   O8        1.0  0.7687029324584743  0.41338295807855113  0.3723314374868336  1.0000
  O   O9        1.0  0.7687054482101761  0.21774220325356766  0.5680455974336607  1.0000
