data_image0
_chemical_formula_structural       NC8NC6H8C6SCOC6H9C7OC6H9Zn2C4O8
_chemical_formula_sum              "N2 C44 H26 S1 O10 Zn2"
_cell_length_a       17.457602349358154
_cell_length_b       10.302038109246572
_cell_length_c       10.299382801718286
_cell_angle_alpha    85.57853228507349
_cell_angle_beta     92.85617812018302
_cell_angle_gamma    91.70619204985762

_space_group_name_H-M_alt    "P 1"
_space_group_IT_number       1

loop_
  _space_group_symop_operation_xyz
  'x, y, z'

loop_
  _atom_site_type_symbol
  _atom_site_label
  _atom_site_symmetry_multiplicity
  _atom_site_fract_x
  _atom_site_fract_y
  _atom_site_fract_z
  _atom_site_occupancy
  N   N1        1.0  0.7229772844844026  0.4522424644982767  0.6267207453072918  1.0000
  C   C1        1.0  0.6618927327727145  0.406326114334899  0.616098933156263  1.0000
  C   C2        1.0  0.5859009665845256  0.3492118894970508  0.6028949414505886  1.0000
  C   C3        1.0  0.5273649626516467  0.38937787016343245  0.6777970881658513  1.0000
  C   C4        1.0  0.4528115594599978  0.33438152168963886  0.6652078136891229  1.0000
  C   C5        1.0  0.39068419941239413  0.37679092481000775  0.7445320104966908  1.0000
  C   C6        1.0  0.3161522409084002  0.3952448925550166  0.6887717319881725  1.0000
  C   C7        1.0  0.2576161774388338  0.4352270104999517  0.7637818060413518  1.0000
  C   C8        1.0  0.1816466234840773  0.45428628788405967  0.705806177604146  1.0000
  N   N2        1.0  0.12058001736616492  0.4696035687298079  0.6591939225215182  1.0000
  C   C9        1.0  0.2731198540694428  0.4569983371254137  0.8950607025335702  1.0000
  C   C10       1.0  0.34686710490337647  0.43893333485888264  0.9512086268398512  1.0000
  C   C11       1.0  0.40539150592572604  0.39913131180127914  0.876656292538265  1.0000
  C   C12       1.0  0.43808296446039025  0.23854167283077188  0.5762833996521037  1.0000
  C   C13       1.0  0.49660722308571853  0.19865437910884506  0.5017812888194195  1.0000
  C   C14       1.0  0.570375771696052  0.25376317635012996  0.5149205211568524  1.0000
  H   H1        1.0  0.5397099594679721  0.4645666042113747  0.7444371250297179  1.0000
  H   H2        1.0  0.3038248559762972  0.3802596640981099  0.5867465530784985  1.0000
  H   H3        1.0  0.22825296167150325  0.4878845038703199  0.9538999581270351  1.0000
  H   H4        1.0  0.35868115041674553  0.4554757903111186  0.05286076127357997  1.0000
  H   H5        1.0  0.46186501466764274  0.38415136908493247  0.9227601110546928  1.0000
  H   H6        1.0  0.38159181034681366  0.1932148457723386  0.5656255510287234  1.0000
  H   H7        1.0  0.4847764891470278  0.1245816274735467  0.43394309772836026  1.0000
  H   H8        1.0  0.6152424397912133  0.22200760845116901  0.4565922659402901  1.0000
  C   C15       1.0  0.9217096622135071  0.0796415435433344  0.6429115408192667  1.0000
  C   C16       1.0  0.8561394408097445  0.08153311402609661  0.5580368750225293  1.0000
  C   C17       1.0  0.8238753940943045  0.9655314414051654  0.5153523288572608  1.0000
  C   C18       1.0  0.8563862149728784  0.8464112807956838  0.5580030236375686  1.0000
  C   C19       1.0  0.9218549934388597  0.8421948040448292  0.6430149845447314  1.0000
  C   C20       1.0  0.9542185904816548  0.9594500028403078  0.684946772571467  1.0000
  S   S1        1.0  0.740645788647852  0.9694129727645775  0.40594591794694224  1.0000
  C   C21       1.0  0.7970795024951667  0.9803441284436689  0.2641333602530509  1.0000
  O   O1        1.0  0.815587444166702  0.8758758353227216  0.21929500868967655  1.0000
  C   C22       1.0  0.8223948280710597  0.10760339713382772  0.20070352124074198  1.0000
  C   C23       1.0  0.8766573647296936  0.11229295629998637  0.10362897476261579  1.0000
  C   C24       1.0  0.9013267438675923  0.23169472501408656  0.04392082981682143  1.0000
  C   C25       1.0  0.8721488617055931  0.347664825681585  0.08003898129665998  1.0000
  C   C26       1.0  0.8181173230957053  0.34445768226238815  0.17577935299947023  1.0000
  C   C27       1.0  0.7931921601750996  0.22534844264346354  0.23578677931140282  1.0000
  H   H9        1.0  0.04521296428975655  0.28337633266947204  0.8030518396973411  1.0000
  H   H10       1.0  0.8300441240722607  0.1729098865572871  0.5246298810267274  1.0000
  H   H11       1.0  0.8305381583308253  0.7575252246922399  0.5241276940408948  1.0000
  H   H12       1.0  0.004768942616006905  0.957071434805095  0.7503761610650586  1.0000
  H   H13       1.0  0.9003961122249117  0.023759144377506917  0.07427027253907426  1.0000
  H   H14       1.0  0.9431923272210336  0.2342617274594032  0.9696426686655762  1.0000
  H   H15       1.0  0.8913350121530523  0.4399980702596797  0.033731784029605416  1.0000
  H   H16       1.0  0.7953844079337259  0.43441797242864544  0.20345955403438842  1.0000
  H   H17       1.0  0.7508773880736884  0.22614932383026987  0.30889591876635203  1.0000
  C   C28       1.0  0.9218588325287438  0.4608483022123827  0.2615997005024919  1.0000
  C   C29       1.0  0.0024587628501739904  0.46523090671205963  0.2668789423226235  1.0000
  C   C30       1.0  0.043110798583428256  0.4659536330049454  0.1524833248772739  1.0000
  C   C31       1.0  0.0022718142869331275  0.465250773780185  0.03161810845470802  1.0000
  C   C32       1.0  0.9217057667571339  0.4609880393290346  0.02432675098369241  1.0000
  C   C33       1.0  0.8819665500788638  0.45846688798616897  0.13992149344118876  1.0000
  C   C34       1.0  0.128214111920947  0.47196472822444224  0.15780570412408568  1.0000
  O   O2        1.0  0.16202907727164462  0.5341356459049964  0.06604788774507386  1.0000
  C   C35       1.0  0.17495622684938228  0.4074383640362366  0.2671214179673136  1.0000
  C   C36       1.0  0.24707691382077493  0.46103523546076697  0.30411916597330224  1.0000
  C   C37       1.0  0.29194859689192754  0.4000756456436423  0.40603080036798184  1.0000
  C   C38       1.0  0.2656389605033682  0.2846505147756315  0.4712322450258907  1.0000
  C   C39       1.0  0.19453533479491036  0.22965143455045722  0.4342943702552806  1.0000
  C   C40       1.0  0.1494450259508353  0.29022285609785164  0.33246689540526386  1.0000
  H   H18       1.0  0.7697550819546496  0.4545889030197863  0.45880179720143316  1.0000
  H   H19       1.0  0.0337143078850659  0.46954543162479534  0.3600308576726492  1.0000
  H   H20       1.0  0.03353470562922678  0.4667871571012464  0.9432199631992972  1.0000
  H   H21       1.0  0.8198300767682483  0.45508902864977885  0.13504736057180522  1.0000
  H   H22       1.0  0.2683935938665869  0.5506179282199011  0.25493531842983463  1.0000
  H   H23       1.0  0.3471813331302669  0.4423615903421813  0.4344192729941142  1.0000
  H   H24       1.0  0.30048151747598806  0.23755621653422487  0.5500154787211233  1.0000
  H   H25       1.0  0.17446736124124218  0.13966746571038424  0.4842089099721954  1.0000
  H   H26       1.0  0.09513289016217574  0.24469572199137413  0.30396699524687226  1.0000
  Zn  Zn1       1.0  0.8377168423666378  0.4572490236274471  0.6360993006828717  1.0000
  Zn  Zn2       1.0  0.005840441072211935  0.46458636616600657  0.6498259980800749  1.0000
  C   C41       1.0  0.9217320254750876  0.45578905169733835  0.88015420085401  1.0000
  C   C42       1.0  0.9218270941548257  0.46604805648749975  0.4057713754908747  1.0000
  C   C43       1.0  0.9218245907101604  0.6980548751345971  0.6378199861688991  1.0000
  C   C44       1.0  0.9217344712397795  0.22378067061379814  0.6481056545181255  1.0000
  O   O3        1.0  0.9856184709125094  0.4705719603326206  0.45936591599825727  1.0000
  O   O4        1.0  0.9855425699080294  0.4568330414977175  0.8369775320833384  1.0000
  O   O5        1.0  0.9856164571531814  0.652465720504031  0.6412908691297634  1.0000
  O   O6        1.0  0.9855445263194688  0.2749392880928252  0.6550524768958021  1.0000
  O   O7        1.0  0.85801269974705  0.6468960991981655  0.6308728171760654  1.0000
  O   O8        1.0  0.8579388128095398  0.45126498012583166  0.8265594110964216  1.0000
  O   O9        1.0  0.8580147141697039  0.4650038534313139  0.4489462336306598  1.0000
  O   O10       1.0  0.8579407695522202  0.2693711719225373  0.6446328918931556  1.0000
