data_image0
_chemical_formula_structural       NC11NC3H8C12SCH12C12OCH12Zn2C4O8
_chemical_formula_sum              "N2 C44 H32 S1 O9 Zn2"
_cell_length_a       17.807433833752565
_cell_length_b       10.299776766347529
_cell_length_c       10.299794127170987
_cell_angle_alpha    85.57877721711455
_cell_angle_beta     88.5176554422573
_cell_angle_gamma    90.66624570658541

_space_group_name_H-M_alt    "P 1"
_space_group_IT_number       1

loop_
  _space_group_symop_operation_xyz
  'x, y, z'

loop_
  _atom_site_type_symbol
  _atom_site_label
  _atom_site_symmetry_multiplicity
  _atom_site_fract_x
  _atom_site_fract_y
  _atom_site_fract_z
  _atom_site_occupancy
  N   N1        1.0  0.7072413930585082  0.4380218758146741  0.5347862817520608  1.0000
  C   C1        1.0  0.6564240295151944  0.40331528229224944  0.6013439081638525  1.0000
  C   C2        1.0  0.5932021036643105  0.36014313987986507  0.6841331016707286  1.0000
  C   C3        1.0  0.6049330289485614  0.2966300347937216  0.8068428325181702  1.0000
  C   C4        1.0  0.5436183332353276  0.25513696830779753  0.8873482791840558  1.0000
  C   C5        1.0  0.47041838103623934  0.2768439318033722  0.8457847460529477  1.0000
  C   C6        1.0  0.457710663711809  0.3405114505923906  0.7226148472755896  1.0000
  C   C7        1.0  0.3799424266355177  0.3635476944273159  0.6782708559271663  1.0000
  C   C8        1.0  0.3611704204156548  0.34663769942848766  0.5486962126145591  1.0000
  C   C9        1.0  0.2879405357502329  0.36830592265974166  0.5070886085440862  1.0000
  C   C10       1.0  0.23253957786477553  0.40720242202445844  0.5942354274383725  1.0000
  C   C11       1.0  0.1571729383480589  0.42952869919522  0.5512666236613224  1.0000
  N   N2        1.0  0.0965835337229757  0.44747736736207355  0.5167228326842044  1.0000
  C   C12       1.0  0.2506200161429833  0.4243228343715523  0.7232789716801196  1.0000
  C   C13       1.0  0.3237971289245368  0.402619756773058  0.7651419909766637  1.0000
  C   C14       1.0  0.5198826710873713  0.3819999570475942  0.6421258154364871  1.0000
  H   H1        1.0  0.6613998750424623  0.2792256631757861  0.8402060013977813  1.0000
  H   H2        1.0  0.5528194279479833  0.20571338560624272  0.9820776869337683  1.0000
  H   H3        1.0  0.42378139274520443  0.24230714531379746  0.9092192502836018  1.0000
  H   H4        1.0  0.40285911843091776  0.31497626208533536  0.47998179668475977  1.0000
  H   H5        1.0  0.2745081460065743  0.35439606855090766  0.40705846702324644  1.0000
  H   H6        1.0  0.20821479505109677  0.4547611164280167  0.7914785941215576  1.0000
  H   H7        1.0  0.3367008114788728  0.418074937796866  0.8649894510005085  1.0000
  H   H8        1.0  0.511379785864126  0.43278593590803655  0.5476307683664667  1.0000
  C   C15       1.0  0.9019868887262874  0.06138628954882816  0.5257494861374781  1.0000
  C   C16       1.0  0.906492210289199  0.04997378041402323  0.6620472925471425  1.0000
  C   C17       1.0  0.9087027617180173  0.9270505951417867  0.7311191900265295  1.0000
  C   C18       1.0  0.9063485574160507  0.8146825197363375  0.6620691468540378  1.0000
  C   C19       1.0  0.9018452423421106  0.8241031298709646  0.525770498010157  1.0000
  C   C20       1.0  0.899689193792433  0.9478946880574219  0.4583736490057129  1.0000
  C   C21       1.0  0.9134606044632012  0.9160411532474956  0.8753072747125492  1.0000
  C   C22       1.0  0.8704594968128384  0.8215580181041521  0.9513411657404761  1.0000
  C   C23       1.0  0.8749597465403549  0.8114318477348078  0.08703464969266972  1.0000
  C   C24       1.0  0.9222736735625501  0.8955062195533325  0.14850951725025718  1.0000
  C   C25       1.0  0.965453970128812  0.9894203203966595  0.0738403065472174  1.0000
  C   C26       1.0  0.9610638810506991  0.99989905183017  0.9381312972363178  1.0000
  S   S1        1.0  0.9281309579441251  0.8820544240878758  0.32261908245510396  1.0000
  C   C27       1.0  0.8526376146302231  0.996288528897565  0.3456492941306193  1.0000
  H   H9        1.0  0.9002997125438191  0.3931891733338086  0.47381246358568335  1.0000
  H   H10       1.0  0.9072565771734649  0.13683887964004862  0.7149674207910037  1.0000
  H   H11       1.0  0.9090717790187767  0.7197503264399182  0.7147022679695094  1.0000
  H   H12       1.0  0.8962140434199035  0.955930477787156  0.3532256628914432  1.0000
  H   H13       1.0  0.9000917677528674  0.5002381307533267  0.4738412168900679  1.0000
  H   H14       1.0  0.83264438608548  0.7566618184102951  0.9059839044645447  1.0000
  H   H15       1.0  0.8413678369710919  0.738570030674594  0.1443117570468211  1.0000
  H   H16       1.0  0.0024694111495826574  0.0543534390697169  0.12082352072987558  1.0000
  H   H17       1.0  0.9956038774824477  0.07241535585518075  0.8822231730580425  1.0000
  H   H18       1.0  0.8676801281537068  0.09296928033272689  0.29607626956312116  1.0000
  H   H19       1.0  0.8439254231191421  0.006787084636571406  0.451327324686019  1.0000
  H   H20       1.0  0.7997766395181554  0.9594599525329072  0.3059818662706543  1.0000
  C   C28       1.0  0.9019414137968909  0.44263185362089813  0.14440737037020068  1.0000
  C   C29       1.0  0.8283344408500708  0.3917221697017881  0.15062807864110983  1.0000
  C   C30       1.0  0.7910165273979098  0.366027915845349  0.03663425416675925  1.0000
  C   C31       1.0  0.8282833243027335  0.3919473923348651  0.9153255628324432  1.0000
  C   C32       1.0  0.9018907178000183  0.4428575938893204  0.9071125732247816  1.0000
  C   C33       1.0  0.9383083552514871  0.4679118870178624  0.022192247025215835  1.0000
  C   C34       1.0  0.7131466718045603  0.31216131142098935  0.04427000803376546  1.0000
  C   C35       1.0  0.6593560795979984  0.359521462037818  0.9556182189164506  1.0000
  C   C36       1.0  0.5861705252385896  0.3088146548183015  0.9630639976487019  1.0000
  C   C37       1.0  0.5657116773487851  0.21038507364363412  0.0586980348311319  1.0000
  C   C38       1.0  0.6187613754873691  0.16160235000974119  0.1482467534587304  1.0000
  C   C39       1.0  0.6920489328603425  0.212951172763389  0.14034487866378978  1.0000
  O   O1        1.0  0.6010965691244069  0.06260166415525004  0.24588610533194633  1.0000
  C   C40       1.0  0.5290960767332348  0.0015802351024571902  0.26526265097077917  1.0000
  H   H21       1.0  0.9299988306399711  0.4619725592586388  0.46949410688244697  1.0000
  H   H22       1.0  0.7994756663582899  0.3735926900653008  0.24424367441997477  1.0000
  H   H23       1.0  0.8001253758937045  0.3706693570098385  0.8273000321788242  1.0000
  H   H24       1.0  0.9950933572184592  0.5071857355353466  0.016624826030367183  1.0000
  H   H25       1.0  0.9299231537982413  0.4623174862522369  0.5765264015652889  1.0000
  H   H26       1.0  0.6736291281920208  0.43693326421623263  0.8816387722180892  1.0000
  H   H27       1.0  0.5450886167308678  0.3462118737343157  0.8946328399305825  1.0000
  H   H28       1.0  0.5086448416595588  0.17296539093145677  0.062173420779549016  1.0000
  H   H29       1.0  0.732800006573991  0.17379592084789364  0.20861758611801243  1.0000
  H   H30       1.0  0.5136207381072757  0.9527492492043499  0.1771191810835675  1.0000
  H   H31       1.0  0.5310403416619338  0.9271525305689385  0.34884293041604586  1.0000
  H   H32       1.0  0.4862939537766495  0.07479818842030461  0.28752691719541823  1.0000
  Zn  Zn1       1.0  0.8195971245475959  0.4407470540515987  0.5295810446463132  1.0000
  Zn  Zn2       1.0  0.9842277887418593  0.44474157281915766  0.5219386550586951  1.0000
  C   C41       1.0  0.9018995638228808  0.4376412621993886  0.7629449093220901  1.0000
  C   C42       1.0  0.90192714691547  0.4478490469250622  0.28857483443435905  1.0000
  C   C43       1.0  0.901868473679273  0.6799317917038998  0.5205917381507148  1.0000
  C   C44       1.0  0.9019581811673488  0.2055569557979131  0.530928077406277  1.0000
  O   O2        1.0  0.9643988389539113  0.4511102180525585  0.3340585051845606  1.0000
  O   O3        1.0  0.9643787368204555  0.43741085857059003  0.7116604678507288  1.0000
  O   O4        1.0  0.9643527888336835  0.6330635052920197  0.5159586065753949  1.0000
  O   O5        1.0  0.9644247307681393  0.2554575792293421  0.529760271697475  1.0000
  O   O6        1.0  0.8394001263409503  0.6300310462796928  0.521759430608675  1.0000
  O   O7        1.0  0.8394260740390848  0.43437995981918  0.7174612226846075  1.0000
  O   O8        1.0  0.8394461763347438  0.44807927358497857  0.33985769868093874  1.0000
  O   O9        1.0  0.8394720681411498  0.25242662550182726  0.5355595625574149  1.0000
