data_image0
_chemical_formula_structural       NC12NC2H8C12ClH9C12NCOH11Zn2C4O8
_chemical_formula_sum              "N3 C43 H28 Cl1 O9 Zn2"
_cell_length_a       19.240039667572717
_cell_length_b       10.299768534541528
_cell_length_c       10.299148425239203
_cell_angle_alpha    85.5385229165027
_cell_angle_beta     89.98519547309932
_cell_angle_gamma    90.01670575511149

_space_group_name_H-M_alt    "P 1"
_space_group_IT_number       1

loop_
  _space_group_symop_operation_xyz
  'x, y, z'

loop_
  _atom_site_type_symbol
  _atom_site_label
  _atom_site_symmetry_multiplicity
  _atom_site_fract_x
  _atom_site_fract_y
  _atom_site_fract_z
  _atom_site_occupancy
  N   N1        1.0  0.6548971972137636  0.4218583928639555  0.5674323665060954  1.0000
  C   C1        1.0  0.5947488284209291  0.4218584768786098  0.5674322845682733  1.0000
  C   C2        1.0  0.5199307913170725  0.42185859422051614  0.5674321472607371  1.0000
  C   C3        1.0  0.48343270532179516  0.3573507006362955  0.6708476705472177  1.0000
  C   C4        1.0  0.4107619279392792  0.3572397842905029  0.670934212330656  1.0000
  C   C5        1.0  0.37359855642569595  0.42185868687996836  0.567431919568375  1.0000
  C   C6        1.0  0.4108108633015899  0.4864777763725401  0.4639298213717356  1.0000
  C   C7        1.0  0.48348152242908826  0.4863666244784077  0.46401648565035525  1.0000
  C   C8        1.0  0.2963934659869956  0.4218586082595015  0.5674318241413132  1.0000
  C   C9        1.0  0.2591821852895247  0.30858144154487666  0.6092985708819669  1.0000
  C   C10       1.0  0.18651152622809508  0.3086883789109198  0.6092072455287709  1.0000
  C   C11       1.0  0.1500611790352085  0.4218584790624316  0.5674318850479867  1.0000
  C   C12       1.0  0.0752431418280927  0.42185836521663234  0.567432133719437  1.0000
  N   N2        1.0  0.015094824940779801  0.42185832430624876  0.5674323421510594  1.0000
  C   C13       1.0  0.18655834271808897  0.535028655062936  0.5256564716773531  1.0000
  C   C14       1.0  0.2592290683092877  0.5351357726161783  0.5255649837291172  1.0000
  H   H1        1.0  0.5111286081213852  0.3074070027226674  0.7515915992095308  1.0000
  H   H2        1.0  0.3836496282068734  0.3080936962382541  0.7527937760064962  1.0000
  H   H3        1.0  0.3837366322571261  0.5356238914982374  0.38207020684552306  1.0000
  H   H4        1.0  0.5112153910387657  0.5363102220150511  0.3832728327968622  1.0000
  H   H5        1.0  0.2862572317860556  0.21941389933137367  0.6404629091590819  1.0000
  H   H6        1.0  0.1587784529612227  0.2204195750775202  0.641404679132277  1.0000
  H   H7        1.0  0.15886159253132837  0.6232974343536324  0.49345905262380363  1.0000
  H   H8        1.0  0.2863405006485201  0.6243033940242517  0.49440060068216507  1.0000
  C   C15       1.0  0.8349337965068735  0.040492976524106446  0.5674302153163302  1.0000
  C   C16       1.0  0.8395301279990133  0.050115637674341455  0.43095184268024717  1.0000
  C   C17       1.0  0.8419259420510485  0.9378521463009366  0.361804555214986  1.0000
  C   C18       1.0  0.8396628695977608  0.8148279137396203  0.43096733368461054  1.0000
  C   C19       1.0  0.8350649030788609  0.8032137235779756  0.5674456442669826  1.0000
  C   C20       1.0  0.8327266272420285  0.9166036881900836  0.6349128056179518  1.0000
  C   C21       1.0  0.846789401714309  0.9490857874220657  0.21742181435905386  1.0000
  C   C22       1.0  0.8072596545661678  0.042656952946848126  0.14295286418494024  1.0000
  C   C23       1.0  0.8118992063353927  0.053034577854023546  0.0070637106185671445  1.0000
  C   C24       1.0  0.8560016196338628  0.9703638782266735  0.9439515323149622  1.0000
  C   C25       1.0  0.8955201847988172  0.8771055879321601  0.01690915737574561  1.0000
  C   C26       1.0  0.8910040569461014  0.8663357056555634  0.15281295519715776  1.0000
  Cl  Cl1       1.0  0.8617451857887544  0.9836301961410662  0.7734547337554317  1.0000
  H   H9        1.0  0.8331467069288376  0.36428002060199294  0.6194319402768167  1.0000
  H   H10       1.0  0.8422169827861993  0.1451500169234099  0.37821560284245037  1.0000
  H   H11       1.0  0.8405359541936727  0.7280162268759791  0.37801752410741685  1.0000
  H   H12       1.0  0.8291800651876052  0.9084120593546124  0.7401995876217571  1.0000
  H   H13       1.0  0.8333405350086046  0.4713344255456386  0.619455170738233  1.0000
  H   H14       1.0  0.7721119401846622  0.10661336655079866  0.18969957234052728  1.0000
  H   H15       1.0  0.7810482705140418  0.12517192209140982  0.9509480730141763  1.0000
  H   H16       1.0  0.9298930185548508  0.8131032645475469  0.9684728544539731  1.0000
  H   H17       1.0  0.9227371501268691  0.7944922941042996  0.20743418406381345  1.0000
  C   C27       1.0  0.8350516492091248  0.42200920979070666  0.18604174275756957  1.0000
  C   C28       1.0  0.9055742705367736  0.457567771591445  0.18207302143325954  1.0000
  C   C29       1.0  0.9412202788273046  0.475382505051841  0.06292865526281677  1.0000
  C   C30       1.0  0.9054276942090809  0.4572276243555454  0.9468158595630692  1.0000
  C   C31       1.0  0.8349470345045219  0.42169753595425763  0.9488341253040261  1.0000
  C   C32       1.0  0.800172499995747  0.40428766702557173  0.06895288472774563  1.0000
  C   C33       1.0  0.01578274785260469  0.5129749315838392  0.05982288608994235  1.0000
  C   C34       1.0  0.06247568090184097  0.4556045202509173  0.9762236731509049  1.0000
  C   C35       1.0  0.1326053207865421  0.49111753190359275  0.9734502658658073  1.0000
  C   C36       1.0  0.15768380293379813  0.5833896234093501  0.054961119932980695  1.0000
  C   C37       1.0  0.11092221167276373  0.6426062328943263  0.13699197368124216  1.0000
  C   C38       1.0  0.04076118076819246  0.6071998887972192  0.13986222437803764  1.0000
  N   N3        1.0  0.22987083481878653  0.6195962427420563  0.04842644358312831  1.0000
  C   C39       1.0  0.2698553914777062  0.6562689268702591  0.15715727936249846  1.0000
  O   O1        1.0  0.2463361345823087  0.6421065192094613  0.2715171718524292  1.0000
  H   H18       1.0  0.7020541235256612  0.3541302991351163  0.4008853633435392  1.0000
  H   H19       1.0  0.9331516744338965  0.46976306963997505  0.27199966868398184  1.0000
  H   H20       1.0  0.9323968956973322  0.472619156588753  0.8545832699255215  1.0000
  H   H21       1.0  0.7458098176564321  0.3768788864017485  0.07122471904092564  1.0000
  H   H22       1.0  0.8078403121452938  0.40799541264448175  0.6221372659299362  1.0000
  H   H23       1.0  0.0449401080666878  0.3820954433136445  0.9140493401580071  1.0000
  H   H24       1.0  0.16771551378808103  0.44558001597332597  0.9084944229371102  1.0000
  H   H25       1.0  0.12806374851487545  0.7182798271812874  0.19675974201008728  1.0000
  H   H26       1.0  0.005733457003733732  0.6554036327883743  0.2029255473317815  1.0000
  H   H27       1.0  0.2566003755298072  0.610657006497358  0.9612431837411766  1.0000
  H   H28       1.0  0.3220482061759724  0.6933083394832278  0.14133415081767264  1.0000
  Zn  Zn1       1.0  0.7588424594273172  0.42185490284961485  0.5674398483692158  1.0000
  Zn  Zn2       1.0  0.9111495782238793  0.4218512166073964  0.5674354597314146  1.0000
  C   C40       1.0  0.8349643751731278  0.4165828166217187  0.8046499565516364  1.0000
  C   C41       1.0  0.8350293259312387  0.42712494134737655  0.3302254790098893  1.0000
  C   C42       1.0  0.835037247622412  0.6590454169267379  0.5622672227927157  1.0000
  C   C43       1.0  0.834956401232496  0.18466078072717718  0.5726082819822371  1.0000
  O   O2        1.0  0.8928215908894883  0.4288347629918656  0.37861319245074143  1.0000
  O   O3        1.0  0.8927696891175065  0.4148692176440043  0.7562585383435714  1.0000
  O   O4        1.0  0.8928277551883206  0.6106608332154542  0.5605327659850368  1.0000
  O   O5        1.0  0.8927634728615231  0.23304315675160026  0.5743388674293244  1.0000
  O   O6        1.0  0.7772285128147305  0.6106629627080855  0.5605364406659721  1.0000
  O   O7        1.0  0.7771704470184311  0.4148729074544897  0.756262143805746  1.0000
  O   O8        1.0  0.7772223490429987  0.4288384081848349  0.37861523639955874  1.0000
  O   O9        1.0  0.777164230997241  0.23304679261605973  0.5743410087527598  1.0000
