data_image0
_chemical_formula_structural       NC10NC5H10C6SCOC6H10C7OC6H10Zn2C4O8
_chemical_formula_sum              "N2 C45 H30 S1 O10 Zn2"
_cell_length_a       19.4436361288709
_cell_length_b       10.302038109246572
_cell_length_c       10.299382801718286
_cell_angle_alpha    85.57853228507349
_cell_angle_beta     89.6852200800954
_cell_angle_gamma    89.43651638143119

_space_group_name_H-M_alt    "P 1"
_space_group_IT_number       1

loop_
  _space_group_symop_operation_xyz
  'x, y, z'

loop_
  _atom_site_type_symbol
  _atom_site_label
  _atom_site_symmetry_multiplicity
  _atom_site_fract_x
  _atom_site_fract_y
  _atom_site_fract_z
  _atom_site_occupancy
  N   N1        1.0  0.648142516231913  0.40870012949989176  0.5622927082281758  1.0000
  C   C1        1.0  0.5893065099911624  0.41859972058413986  0.5766782230813681  1.0000
  C   C2        1.0  0.5159771312353247  0.43094583816478393  0.5946724611924903  1.0000
  C   C3        1.0  0.4737994120197618  0.398955996642508  0.499993465706126  1.0000
  C   C4        1.0  0.3978958345753482  0.40939177012177036  0.5053231110398078  1.0000
  C   C5        1.0  0.3581393326822328  0.38465080627868176  0.6123925247129969  1.0000
  C   C6        1.0  0.2820210247440285  0.3885663601379689  0.5994336465763725  1.0000
  C   C7        1.0  0.24145620976423654  0.44621430332704337  0.6932133634291626  1.0000
  C   C8        1.0  0.1697947095946853  0.4498510795948842  0.6826699366991502  1.0000
  C   C9        1.0  0.13770316767731214  0.39544400065473817  0.5786332631026345  1.0000
  C   C10       1.0  0.0639124520700796  0.39914200391646837  0.5679345624840031  1.0000
  N   N2        1.0  0.004589721671001198  0.402115004492444  0.5593335165054291  1.0000
  C   C11       1.0  0.177542926975274  0.33708914340643736  0.4852366792631169  1.0000
  C   C12       1.0  0.24922087810702484  0.3333981544447502  0.4955283191019766  1.0000
  C   C13       1.0  0.38624927910648593  0.3442010023895383  0.7434819611987227  1.0000
  C   C14       1.0  0.4449142219287432  0.3873126683270786  0.7907310902782989  1.0000
  C   C15       1.0  0.48914706720511447  0.4851462596500513  0.716377648352885  1.0000
  H   H1        1.0  0.4959047170404234  0.3698453385724797  0.40968182767543815  1.0000
  H   H2        1.0  0.3732126302876186  0.4318801814299893  0.4121675308177011  1.0000
  H   H3        1.0  0.2653238919780155  0.48949519600020985  0.7740685440167231  1.0000
  H   H4        1.0  0.1394484391307402  0.49515513993314425  0.7555979037470257  1.0000
  H   H5        1.0  0.1532033535263299  0.294003862798095  0.4047160124414067  1.0000
  H   H6        1.0  0.27890107334800324  0.2858512610827506  0.4232963584018524  1.0000
  H   H7        1.0  0.3552652093442735  0.2800002028890609  0.8077197788970529  1.0000
  H   H8        1.0  0.4600464139684114  0.35325456879867456  0.8886610781661874  1.0000
  H   H9        1.0  0.45905626598951893  0.5758380487109298  0.6911389656563354  1.0000
  H   H10       1.0  0.5324286363633504  0.5107264592302765  0.779466769455598  1.0000
  C   C16       1.0  0.82630427334708  0.024130268507950085  0.5607734908864512  1.0000
  C   C17       1.0  0.7675211701949156  0.02997089881258086  0.4817421077855187  1.0000
  C   C18       1.0  0.7385967477120117  0.9159123742830717  0.4419327684112729  1.0000
  C   C19       1.0  0.7677424009727936  0.7948342032572919  0.4816862651495553  1.0000
  C   C20       1.0  0.8264345614600104  0.7866747762297441  0.560863983436579  1.0000
  C   C21       1.0  0.8554482298999426  0.9019808313737796  0.5999116932563847  1.0000
  S   S1        1.0  0.6639821684482603  0.9248065269791517  0.33994335416303906  1.0000
  C   C22       1.0  0.7145744762264997  0.9323388819956534  0.19310171258740486  1.0000
  O   O1        1.0  0.7311666764832713  0.8267559217700995  0.14661402794280964  1.0000
  C   C23       1.0  0.7372694338276791  0.05807349920578031  0.1274159012646563  1.0000
  C   C24       1.0  0.7859153011347485  0.059495019942851224  0.02550575510881359  1.0000
  C   C25       1.0  0.8080311736683088  0.17741104021965357  0.9635992012946843  1.0000
  C   C26       1.0  0.7818734694518022  0.29513842032995985  0.0023175363683454165  1.0000
  C   C27       1.0  0.7334346897805023  0.29518540315389585  0.10287292238447887  1.0000
  C   C28       1.0  0.7110895094276054  0.17757731691429535  0.16510155170695584  1.0000
  H   H11       1.0  0.937023852908611  0.2204268956505535  0.7099078072857864  1.0000
  H   H12       1.0  0.7441269576586761  0.12291929890062159  0.4506605949222982  1.0000
  H   H13       1.0  0.7445698548482867  0.7075048831198584  0.45011438213065946  1.0000
  H   H14       1.0  0.9007661577683601  0.8965577965010093  0.6608362929667481  1.0000
  H   H15       1.0  0.8488693131964891  0.45625576159832637  0.5906442440809878  1.0000
  H   H16       1.0  0.8071968709211592  0.9695315081970697  0.9940315771481272  1.0000
  H   H17       1.0  0.845563285839119  0.1774566283765833  0.8855901935255428  1.0000
  H   H18       1.0  0.7990736776667645  0.38631615171553607  0.954300567523453  1.0000
  H   H19       1.0  0.7130548394718169  0.3865148154609389  0.132578964524511  1.0000
  H   H20       1.0  0.6731547036568432  0.18092666542056118  0.24198156718311847  1.0000
  C   C29       1.0  0.8264380031689426  0.40532804318265026  0.17944835727428887  1.0000
  C   C30       1.0  0.8986951027594284  0.40485640226933994  0.17754494562692358  1.0000
  C   C31       1.0  0.935139280599527  0.40313080190487266  0.059526626719478955  1.0000
  C   C32       1.0  0.898527505084114  0.4048875285805189  0.9423007716585966  1.0000
  C   C33       1.0  0.8263007811061068  0.4054769989030501  0.9421890481940216  1.0000
  C   C34       1.0  0.7906749371913735  0.40534919839196415  0.061325146349115574  1.0000
  C   C35       1.0  0.011433621832653838  0.40401642906563673  0.05726503404222673  1.0000
  O   O2        1.0  0.041748428672437665  0.46415079237462503  0.9624938009374087  1.0000
  C   C36       1.0  0.05333749991275538  0.3366749545407366  0.16241532972032796  1.0000
  C   C37       1.0  0.1179930354726988  0.3859282550401286  0.19298605104915345  1.0000
  C   C38       1.0  0.15822008851771785  0.3222662043045823  0.2908989505973125  1.0000
  C   C39       1.0  0.13463374037651965  0.2084256086991609  0.35844497545871873  1.0000
  C   C40       1.0  0.07088999092696602  0.15770884543835062  0.3278434920684694  1.0000
  C   C41       1.0  0.030466941878177334  0.22099589495221642  0.23003423487543828  1.0000
  H   H21       1.0  0.6900783833840528  0.40822930865288765  0.3902051621116047  1.0000
  H   H22       1.0  0.9267154127191831  0.4072885175384077  0.2679115266965349  1.0000
  H   H23       1.0  0.9265544009411942  0.404541059816103  0.8511166374574377  1.0000
  H   H24       1.0  0.7349701577666081  0.40571359651590105  0.0619882981114015  1.0000
  H   H25       1.0  0.7985546481043212  0.4068081583596361  0.6146044493008471  1.0000
  H   H26       1.0  0.1371032439662565  0.4742271204321688  0.1419025700291312  1.0000
  H   H27       1.0  0.20773573086521013  0.3612256789247672  0.3143653643224067  1.0000
  H   H28       1.0  0.1658697736971131  0.15923286791957114  0.4341232187196191  1.0000
  H   H29       1.0  0.05289923637092731  0.06893349884127904  0.3795463869273311  1.0000
  H   H30       1.0  0.9817766094051511  0.17873978645295985  0.2063743544154988  1.0000
  Zn  Zn1       1.0  0.7510054793610594  0.4067963356012518  0.5614462611751527  1.0000
  Zn  Zn2       1.0  0.9017267463241105  0.4040081953437742  0.5601906435207815  1.0000
  C   C42       1.0  0.8263243218063376  0.4002764298027261  0.7980141580217256  1.0000
  C   C43       1.0  0.8264095500073095  0.4105297089464668  0.3236228606241925  1.0000
  C   C44       1.0  0.8264073056920876  0.6425366783670792  0.555671694396398  1.0000
  C   C45       1.0  0.8263265144119909  0.16826790141952921  0.5659653937318037  1.0000
  O   O3        1.0  0.8835979352206975  0.41121168641796396  0.37153263997064445  1.0000
  O   O4        1.0  0.883529890665102  0.39747733882898345  0.7491510199649598  1.0000
  O   O5        1.0  0.8835961299038969  0.5931055678708934  0.5534577725580798  1.0000
  O   O6        1.0  0.8835316445700454  0.21558346759643054  0.5672257904320452  1.0000
  O   O7        1.0  0.7692005296813547  0.5952210643014626  0.554411114685539  1.0000
  O   O8        1.0  0.769134290718358  0.39959439517500456  0.7501042930317845  1.0000
  O   O9        1.0  0.7692023355928209  0.41332869721314225  0.3724843516250915  1.0000
  O   O10       1.0  0.7691360449202562  0.2177004691240998  0.5681775994536213  1.0000
