data_image0
_chemical_formula_structural       NC8NC6H8C8H10C6ClH5Zn2C4O8
_chemical_formula_sum              "N2 C32 H23 Cl1 Zn2 O8"
_cell_length_a       17.457602349358154
_cell_length_b       9.275653711864159
_cell_length_c       10.302974078461048
_cell_angle_alpha    85.74330483698749
_cell_angle_beta     92.87591007631781
_cell_angle_gamma    91.13236207428555

_space_group_name_H-M_alt    "P 1"
_space_group_IT_number       1

loop_
  _space_group_symop_operation_xyz
  'x, y, z'

loop_
  _atom_site_type_symbol
  _atom_site_label
  _atom_site_symmetry_multiplicity
  _atom_site_fract_x
  _atom_site_fract_y
  _atom_site_fract_z
  _atom_site_occupancy
  N   N1        1.0  0.7142240933722029  0.6125054443646101  0.6309257212640005  1.0000
  C   C1        1.0  0.6534053962405566  0.5615329651511585  0.6201881379713943  1.0000
  C   C2        1.0  0.5777443217196364  0.49812954339029897  0.6068401387611679  1.0000
  C   C3        1.0  0.5189889910062215  0.5427050974685923  0.681822700215952  1.0000
  C   C4        1.0  0.4447540421972535  0.48165273895438715  0.6690947184691736  1.0000
  C   C5        1.0  0.38239515323637  0.528717958381346  0.7485037456711392  1.0000
  C   C6        1.0  0.30774423912544474  0.5492162169271869  0.6928090794519024  1.0000
  C   C7        1.0  0.2489899437831605  0.5935876314309105  0.7678990568309505  1.0000
  C   C8        1.0  0.1728974544263967  0.6147583331114788  0.7099913156580129  1.0000
  N   N2        1.0  0.11173204550261266  0.631772496421596  0.6634336253374677  1.0000
  C   C9        1.0  0.2643930273866895  0.6177306494408636  0.8991927137085928  1.0000
  C   C10       1.0  0.33825704176438165  0.5976641271765073  0.9552759118145735  1.0000
  C   C11       1.0  0.39699871583509394  0.5534925542608319  0.8806439959970995  1.0000
  C   C12       1.0  0.43056689376875085  0.3752729604545435  0.5799498798850236  1.0000
  C   C13       1.0  0.4893089332659239  0.33100671297218054  0.5053679503024089  1.0000
  C   C14       1.0  0.5627584820947759  0.3921837960844734  0.5186460068693985  1.0000
  H   H1        1.0  0.5309085796171144  0.6261633026462716  0.7486366585178585  1.0000
  H   H2        1.0  0.2954837395640775  0.5326009238526161  0.5907774495204658  1.0000
  H   H3        1.0  0.2193577312897157  0.6520073637792547  0.9580934103753256  1.0000
  H   H4        1.0  0.3499950377015412  0.6160082721713911  0.056938656692839824  1.0000
  H   H5        1.0  0.4535689559146951  0.5368529947452163  0.9266942867393402  1.0000
  H   H6        1.0  0.3743381461361068  0.32495495540082564  0.5691778013231743  1.0000
  H   H7        1.0  0.47789685229026146  0.24878767409323438  0.43735911451918663  1.0000
  H   H8        1.0  0.6077987313315394  0.35694180066520675  0.4602538921321151  1.0000
  C   C15       1.0  0.9151344719950563  0.19885433755348103  0.6461445116434246  1.0000
  C   C16       1.0  0.8971333529061368  0.28138779977212147  0.5288866915540158  1.0000
  C   C17       1.0  0.8722164445184732  0.21495309610393498  0.4160877210883486  1.0000
  C   C18       1.0  0.8664416002899323  0.06407947299790595  0.41976370205973534  1.0000
  C   C19       1.0  0.8852704478694571  0.9803986652567851  0.5345872570732153  1.0000
  C   C20       1.0  0.9108290457290208  0.04541279899665084  0.6482266077358623  1.0000
  C   C21       1.0  0.8542513289216593  0.30487048475953227  0.29091931355607326  1.0000
  C   C22       1.0  0.9260004890912836  0.3301870877764377  0.2132421273487017  1.0000
  H   H9        1.0  0.9847606810000298  0.46677295137810737  0.8317830419181597  1.0000
  H   H10       1.0  0.900805916679885  0.39838449406182525  0.5256893839156076  1.0000
  H   H11       1.0  0.8480745093758644  0.010948400272591257  0.33310507042336024  1.0000
  H   H12       1.0  0.8817234770780771  0.863755627271605  0.5335047183941102  1.0000
  H   H13       1.0  0.9180466248046756  0.7466553970582825  0.862904420544465  1.0000
  H   H14       1.0  0.8095359894491367  0.24982277016869037  0.23080901703881485  1.0000
  H   H15       1.0  0.8309734901544198  0.41090561251214874  0.31202666541044  1.0000
  H   H16       1.0  0.9706991075808019  0.3885500619314948  0.2704964370999894  1.0000
  H   H17       1.0  0.9490232319076045  0.22539649288707553  0.18841074218356635  1.0000
  H   H18       1.0  0.9115346525282999  0.39654498739146793  0.12144758202288063  1.0000
  C   C23       1.0  0.9129817693487542  0.6221336063287504  0.26594308027440494  1.0000
  C   C24       1.0  0.9004009932898964  0.47177631048711133  0.27371742087238515  1.0000
  C   C25       1.0  0.8941587947151629  0.3971731175063125  0.16061804864281837  1.0000
  C   C26       1.0  0.9004010271808011  0.4717763935551484  0.03860952490692671  1.0000
  C   C27       1.0  0.912981767770682  0.6221335318290884  0.02842809900482512  1.0000
  C   C28       1.0  0.9192108437718458  0.6965792829655887  0.14274042988126023  1.0000
  Cl  Cl1       1.0  0.8784424191513621  0.2093411354267445  0.17183358992493414  1.0000
  H   H19       1.0  0.9177211728192339  0.6787706259447408  0.5903175956133717  1.0000
  H   H20       1.0  0.8953973352974226  0.41197570328759836  0.36733468824363613  1.0000
  H   H21       1.0  0.8953973890008712  0.4119756853175582  0.9521337265024163  1.0000
  H   H22       1.0  0.9289134814674191  0.8125393407754774  0.13581629722409128  1.0000
  H   H23       1.0  0.9177210269307184  0.6787706061148384  0.6972899531646619  1.0000
  Zn  Zn1       1.0  0.8289363214038488  0.618061633913813  0.64031428664583  1.0000
  Zn  Zn2       1.0  0.9970198633252868  0.6262044887607561  0.6540556598916503  1.0000
  C   C29       1.0  0.9130092503882928  0.616391177807053  0.8842878128705689  1.0000
  C   C30       1.0  0.9129487605582716  0.6278768525058427  0.4100824156196405  1.0000
  C   C31       1.0  0.9116389211191737  0.8853950671310574  0.6426592895904484  1.0000
  C   C32       1.0  0.9143190412797646  0.3588712286093825  0.6517109991670971  1.0000
  O   O1        1.0  0.9767245426728646  0.6328882209082931  0.4636716573570618  1.0000
  O   O2        1.0  0.9768049929339607  0.6175589604178002  0.841127579076402  1.0000
  O   O3        1.0  0.9756975748419898  0.8347829614083827  0.6460107703533242  1.0000
  O   O4        1.0  0.977831903356869  0.41566422745041237  0.6587883640741126  1.0000
  O   O5        1.0  0.8481242240135954  0.8286018924469689  0.6355815777672864  1.0000
  O   O6        1.0  0.8492316332945206  0.6113796232516554  0.8306983215269471  1.0000
  O   O7        1.0  0.8491511833399249  0.6267088335147002  0.4532408388051479  1.0000
  O   O8        1.0  0.8502585440732241  0.40948482974693  0.6483576428321447  1.0000
