data_image0
_chemical_formula_structural       NC11NC3H8C7OC4NC3H9C7OC6H10Zn2C4O8
_chemical_formula_sum              "N3 C45 H27 O10 Zn2"
_cell_length_a       17.807433833752565
_cell_length_b       10.299371701877257
_cell_length_c       10.299382801718286
_cell_angle_alpha    85.59153606020502
_cell_angle_beta     88.5048620642858
_cell_angle_gamma    90.69533246875125

_space_group_name_H-M_alt    "P 1"
_space_group_IT_number       1

loop_
  _space_group_symop_operation_xyz
  'x, y, z'

loop_
  _atom_site_type_symbol
  _atom_site_label
  _atom_site_symmetry_multiplicity
  _atom_site_fract_x
  _atom_site_fract_y
  _atom_site_fract_z
  _atom_site_occupancy
  N   N1        1.0  0.7078471764022468  0.43821130981804757  0.535160549749617  1.0000
  C   C1        1.0  0.6570111344196174  0.403496753033334  0.6017108318187061  1.0000
  C   C2        1.0  0.5937659745208295  0.36031470530599874  0.6844908894055661  1.0000
  C   C3        1.0  0.6054625999693865  0.2967869285989364  0.8071872293133764  1.0000
  C   C4        1.0  0.5441254520652613  0.2552842402707325  0.8876839460526889  1.0000
  C   C5        1.0  0.4709371737697197  0.2769961773237175  0.8461250098687993  1.0000
  C   C6        1.0  0.4582638607229296  0.3406784209970204  0.722968525827006  1.0000
  C   C7        1.0  0.3805080430277308  0.36371996852815336  0.6786294001992181  1.0000
  C   C8        1.0  0.3617480099274905  0.3468237055066874  0.5490424091465131  1.0000
  C   C9        1.0  0.2885297937133927  0.3684969062743111  0.5074393874181968  1.0000
  C   C10       1.0  0.23312872974975132  0.407384747039077  0.5946031923878397  1.0000
  C   C11       1.0  0.1577741257453474  0.42971616352165887  0.5516391048336104  1.0000
  N   N2        1.0  0.09719439678646981  0.44766896332046935  0.5170991053457403  1.0000
  C   C12       1.0  0.2511973247465135  0.42449148955735705  0.7236591219907413  1.0000
  C   C13       1.0  0.3243627257886108  0.40278340592482453  0.7655175617771965  1.0000
  C   C14       1.0  0.5204583168375352  0.3821765474144023  0.6424882233646991  1.0000
  H   H1        1.0  0.6619200811241425  0.2793785651085763  0.8405467144778347  1.0000
  H   H2        1.0  0.5532999546067912  0.2058493231436067  0.9824028923852586  1.0000
  H   H3        1.0  0.42428196232883914  0.242451770656114  0.9095520542600903  1.0000
  H   H4        1.0  0.40343650519557755  0.3151690745907949  0.4803142869881343  1.0000
  H   H5        1.0  0.2751064000723801  0.35459763515988607  0.4073994437313475  1.0000
  H   H6        1.0  0.2087920202184972  0.45492299550977267  0.7918720369865773  1.0000
  H   H7        1.0  0.33725788216998553  0.4182280562095746  0.8653753015057852  1.0000
  H   H8        1.0  0.5119823866496206  0.43297386378292013  0.5480040801253321  1.0000
  C   C15       1.0  0.9024851055480543  0.06156881036943185  0.5260044664660444  1.0000
  C   C16       1.0  0.9061622759328586  0.0709738728546232  0.389171564353076  1.0000
  C   C17       1.0  0.907163896203251  0.9585278806009633  0.3201340161097319  1.0000
  C   C18       1.0  0.9061715066877013  0.8357058397389414  0.38948852604541817  1.0000
  C   C19       1.0  0.9025636452856729  0.8243016249680685  0.5262660301335376  1.0000
  C   C20       1.0  0.9005436620327144  0.9378302706859369  0.5937259457012212  1.0000
  C   C21       1.0  0.9118357251050936  0.9683343962606871  0.17567002175043145  1.0000
  O   O1        1.0  0.9480049814558547  0.883456051859321  0.11904732589119482  1.0000
  C   C22       1.0  0.8754631384822095  0.0743490710880883  0.09544667279817443  1.0000
  C   C23       1.0  0.9076624762221837  0.11975343706568187  0.9739849591757825  1.0000
  C   C24       1.0  0.8732706612000244  0.21880674132076727  0.8967910688235046  1.0000
  C   C25       1.0  0.9069278974772437  0.26543016997974234  0.7730756165107682  1.0000
  N   N3        1.0  0.93398681445067  0.3029057439681708  0.6736261764829892  1.0000
  C   C26       1.0  0.8061188184725047  0.2723613756991048  0.9400772719368535  1.0000
  C   C27       1.0  0.7732856286471347  0.22673066580582835  0.059828872340735195  1.0000
  C   C28       1.0  0.8074617404326339  0.12796959423376508  0.1370213715891513  1.0000
  H   H9        1.0  0.8967011480286254  0.25116342364371325  0.7842559314918784  1.0000
  H   H10       1.0  0.9090931313577589  0.16595906594715615  0.33614997535784275  1.0000
  H   H11       1.0  0.9075004596433396  0.7488908413657567  0.3364156140250345  1.0000
  H   H12       1.0  0.897709243343977  0.9297757731038019  0.6992143407945506  1.0000
  H   H13       1.0  0.9018099864345276  0.4924755998819932  0.5788252735143233  1.0000
  H   H14       1.0  0.9597687523719037  0.07892219325394412  0.9399914963932385  1.0000
  H   H15       1.0  0.7790478743835741  0.3489089382882107  0.8810947150004931  1.0000
  H   H16       1.0  0.7210512998036376  0.26757477218709225  0.09267529090201121  1.0000
  H   H17       1.0  0.7803021719886752  0.0926165659967928  0.2284359179835762  1.0000
  C   C29       1.0  0.9025993095112431  0.44286382359414267  0.14476196090812055  1.0000
  C   C30       1.0  0.9815256535217062  0.4456444944556861  0.13979728074553766  1.0000
  C   C31       1.0  0.021333710041550047  0.44555890047762703  0.020234610989418256  1.0000
  C   C32       1.0  0.9813425842693735  0.4456680843363787  0.9045602142326645  1.0000
  C   C33       1.0  0.9024494096369734  0.44300663834222265  0.9075084997176357  1.0000
  C   C34       1.0  0.8635353727927048  0.44127522264473895  0.02815385086208888  1.0000
  C   C35       1.0  0.10466981262691588  0.44987888785639085  0.014741027139288043  1.0000
  O   O2        1.0  0.13777759621662655  0.5113921661618643  0.9186994409869955  1.0000
  C   C36       1.0  0.15044697586825184  0.3844074692235482  0.11810047470252094  1.0000
  C   C37       1.0  0.22106598756652773  0.4365828201352533  0.14594348378657318  1.0000
  C   C38       1.0  0.2650112501227351  0.37471622879175315  0.24213742584920728  1.0000
  C   C39       1.0  0.2392574402489902  0.2597867267721212  0.31065631428949647  1.0000
  C   C40       1.0  0.1696344932863354  0.2061886040639851  0.28274357651732096  1.0000
  C   C41       1.0  0.12547517598593538  0.2676712823097287  0.18666149328768578  1.0000
  H   H18       1.0  0.7536536907323413  0.4396279866338466  0.3612962889693332  1.0000
  H   H19       1.0  0.012131986170565767  0.44933843728593303  0.22897734965786953  1.0000
  H   H20       1.0  0.011956342977591738  0.446583074672255  0.8121886452848166  1.0000
  H   H21       1.0  0.8026891083612906  0.43913233363345294  0.031177010177000142  1.0000
  H   H22       1.0  0.8721422453866241  0.44308921198240636  0.5810996691775916  1.0000
  H   H23       1.0  0.24193265320456758  0.525763000647332  0.09407085404717619  1.0000
  H   H24       1.0  0.3190938433036541  0.41591381617869416  0.26351514196525216  1.0000
  H   H25       1.0  0.2733806178887137  0.21198820553807063  0.38499985442814055  1.0000
  H   H26       1.0  0.14999064507775528  0.1165822170026074  0.3351880842638819  1.0000
  H   H27       1.0  0.07229434295483572  0.22321342088402463  0.16505458275923535  1.0000
  Zn  Zn1       1.0  0.8202043718126364  0.440937111062077  0.5299558904564547  1.0000
  Zn  Zn2       1.0  0.9848371834419607  0.44493254439713525  0.5223143471320375  1.0000
  C   C42       1.0  0.9024755578808951  0.4378058843763182  0.7633314076855566  1.0000
  C   C43       1.0  0.9025677953025671  0.4480654533670654  0.28893887448737776  1.0000
  C   C44       1.0  0.9025459475985634  0.6801278401204773  0.5210415410774627  1.0000
  C   C45       1.0  0.9024973492329593  0.2057419359597259  0.5312288124073339  1.0000
  O   O3        1.0  0.9650345122850729  0.45132174818614756  0.3344260359465716  1.0000
  O   O4        1.0  0.9649613355536671  0.43758105121160784  0.7120441174701  1.0000
  O   O5        1.0  0.9650173336517397  0.6332590748675238  0.5163933754991021  1.0000
  O   O6        1.0  0.9649784580290636  0.25564373243891225  0.5300766831525112  1.0000
  O   O7        1.0  0.8400630410444362  0.6302259216582677  0.5221935570368341  1.0000
  O   O8        1.0  0.8400070431172059  0.43454945830349945  0.7178442302968226  1.0000
  O   O9        1.0  0.8400802202007179  0.44829010973064887  0.34022458733685745  1.0000
  O   O10       1.0  0.8400241659215479  0.25261208471270047  0.5358753319087082  1.0000
