data_image0
_chemical_formula_structural       NC8NC6H8C7OC3FC3H9C7OC3NC3H11Zn2C4O8
_chemical_formula_sum              "N3 C44 H28 O10 F1 Zn2"
_cell_length_a       17.457602349358154
_cell_length_b       10.29937835083307
_cell_length_c       10.298749378158432
_cell_angle_alpha    85.54775683836141
_cell_angle_beta     92.88501269270333
_cell_angle_gamma    91.70902404556999

_space_group_name_H-M_alt    "P 1"
_space_group_IT_number       1

loop_
  _space_group_symop_operation_xyz
  'x, y, z'

loop_
  _atom_site_type_symbol
  _atom_site_label
  _atom_site_symmetry_multiplicity
  _atom_site_fract_x
  _atom_site_fract_y
  _atom_site_fract_z
  _atom_site_occupancy
  N   N1        1.0  0.7226055518667938  0.4529965643679712  0.6261809150157793  1.0000
  C   C1        1.0  0.6615168971967929  0.40707002422210037  0.6155704429821776  1.0000
  C   C2        1.0  0.5855200298511151  0.34994312223746094  0.6023805578425094  1.0000
  C   C3        1.0  0.5270068657204758  0.39010144118123935  0.6772797388523129  1.0000
  C   C4        1.0  0.4524485872332453  0.3350928540439071  0.6647040611092123  1.0000
  C   C5        1.0  0.39034541264978945  0.37749410725664934  0.7440251518425915  1.0000
  C   C6        1.0  0.3157974900707785  0.3959673359081275  0.6882539530507141  1.0000
  C   C7        1.0  0.2572842941202597  0.43594171331514997  0.7632611227552837  1.0000
  C   C8        1.0  0.1812981390925434  0.45502098099049615  0.7052741748872984  1.0000
  N   N2        1.0  0.1202181856190119  0.47035433220423006  0.6586528207298681  1.0000
  C   C9        1.0  0.2728269567801296  0.4576859781986471  0.8945480230634621  1.0000
  C   C10       1.0  0.3465902937837856  0.43960172614565507  0.9507068031393759  1.0000
  C   C11       1.0  0.4050919654607245  0.39980737847733683  0.876157372808922  1.0000
  C   C12       1.0  0.43769184212859114  0.23924860031473627  0.5757962415664661  1.0000
  C   C13       1.0  0.4961933843126003  0.19936894538678618  0.5012970631785763  1.0000
  C   C14       1.0  0.5699669719964497  0.2544898738796797  0.5144227265447467  1.0000
  H   H1        1.0  0.5393730305693475  0.46529442003230614  0.7439064258712935  1.0000
  H   H2        1.0  0.3034398481786855  0.3810036812649511  0.5862220286224382  1.0000
  H   H3        1.0  0.227977991839404  0.4885659395232156  0.9533851298073006  1.0000
  H   H4        1.0  0.35843452025706735  0.4561231386234621  0.052365220776213306  1.0000
  H   H5        1.0  0.4615786796258867  0.3848115884205805  0.9222701449249173  1.0000
  H   H6        1.0  0.3811965871481576  0.19391175766071767  0.5651495691897601  1.0000
  H   H7        1.0  0.48434115476792494  0.12529256452922488  0.4334717919561548  1.0000
  H   H8        1.0  0.6148158438885867  0.22274013855286223  0.45609691037596245  1.0000
  C   C15       1.0  0.9213346754416021  0.0802870880461497  0.6424745850214035  1.0000
  C   C16       1.0  0.8412849793235592  0.076801576581498  0.6199110173240707  1.0000
  C   C17       1.0  0.8008128499501076  0.9577513937909566  0.6100001085273263  1.0000
  C   C18       1.0  0.8414725791983062  0.8415657627190802  0.6199332139057625  1.0000
  C   C19       1.0  0.921496378077428  0.8430541304574924  0.6423709873048005  1.0000
  C   C20       1.0  0.9609407619025417  0.9629135622883531  0.6538518746331587  1.0000
  C   C21       1.0  0.7163805720530106  0.9540375626115383  0.584808955776315  1.0000
  O   O1        1.0  0.6867402273137576  0.8680590234570693  0.5157216998204595  1.0000
  C   C22       1.0  0.6655734989437927  0.04776213688593978  0.6380034279331666  1.0000
  C   C23       1.0  0.5972246716561181  0.08478208729238279  0.5686353544135343  1.0000
  C   C24       1.0  0.5484933964923508  0.1719068795906824  0.6187210562379646  1.0000
  F   F1        1.0  0.4830252693051115  0.20774456803126018  0.5506496909404495  1.0000
  C   C25       1.0  0.5671779329948651  0.2220089479747298  0.7388620284256886  1.0000
  C   C26       1.0  0.6344254340829587  0.18468846508992542  0.8093548249151414  1.0000
  C   C27       1.0  0.6833153869770766  0.0976421724027341  0.7596868280791109  1.0000
  H   H9        1.0  0.07253163332006873  0.29434537476936073  0.6830693667005703  1.0000
  H   H10       1.0  0.8104142838741087  0.16696612468771477  0.6085760178881452  1.0000
  H   H11       1.0  0.8104126127251954  0.7497417848437793  0.6113438148289001  1.0000
  H   H12       1.0  0.022653128722898597  0.9647966293365937  0.6712459663758166  1.0000
  H   H13       1.0  0.9523099727086177  0.5162573080642044  0.6499002861364296  1.0000
  H   H14       1.0  0.5819300863109905  0.04712060971435683  0.47522015891372194  1.0000
  H   H15       1.0  0.5294335392556191  0.28934557477337  0.7776620534377927  1.0000
  H   H16       1.0  0.6485339312506472  0.22278530859877677  0.902886744184153  1.0000
  H   H17       1.0  0.7344508512000739  0.06830793092484866  0.8170195562300866  1.0000
  C   C28       1.0  0.9213801552660014  0.46169705739474165  0.26101883372094536  1.0000
  C   C29       1.0  0.9633127356282851  0.5803971494588334  0.25440576986035635  1.0000
  C   C30       1.0  0.9837467539811733  0.6411874378296925  0.1337600592859678  1.0000
  C   C31       1.0  0.9633157951409618  0.5804461464431394  0.019161982818732826  1.0000
  C   C32       1.0  0.9214508910804643  0.4616441107313798  0.02382672884647552  1.0000
  C   C33       1.0  0.9005725337080795  0.4031963504666698  0.1451845056625929  1.0000
  C   C34       1.0  0.028649272363133083  0.7659206226455391  0.12672818662331276  1.0000
  O   O2        1.0  0.07659238002857527  0.7863571225571233  0.039293842935232526  1.0000
  C   C35       1.0  0.019164567781870367  0.8674615460999666  0.21882767117641522  1.0000
  C   C36       1.0  0.9473934612583209  0.8869033171051417  0.26966713730894365  1.0000
  C   C37       1.0  0.9388321501238038  0.9840355846780717  0.3556533020277539  1.0000
  N   N3        1.0  0.8657918437622005  0.002699542898673357  0.40735711228987537  1.0000
  C   C38       1.0  0.002156588418581684  0.06305422944411321  0.39021082844390076  1.0000
  C   C39       1.0  0.07332352634996009  0.0455368143924848  0.3388623887128197  1.0000
  C   C40       1.0  0.08184068993164106  0.9487143028047735  0.2532493754929066  1.0000
  H   H18       1.0  0.8431648024067756  0.23644297416399285  0.48103786217041566  1.0000
  H   H19       1.0  0.9808434078424325  0.6250100473143911  0.3433768867027911  1.0000
  H   H20       1.0  0.9795058236178463  0.6266767414561631  0.9260708930154564  1.0000
  H   H21       1.0  0.8682537331201116  0.3116977652059263  0.14953049303747368  1.0000
  H   H22       1.0  0.8426249689601462  0.23694238535872914  0.8253791911733273  1.0000
  H   H23       1.0  0.8978785143634888  0.8277321956297847  0.24158912350303385  1.0000
  H   H24       1.0  0.8182054368954947  0.944347818352627  0.3822514776990451  1.0000
  H   H25       1.0  0.8587776718089292  0.07491468322151107  0.4712609022451484  1.0000
  H   H26       1.0  0.9962773037954092  0.138414998224762  0.45645216936924093  1.0000
  H   H27       1.0  0.1220193742117257  0.10713209468187124  0.365466488301474  1.0000
  H   H28       1.0  0.13757423347210018  0.9365020520326206  0.21480275777164093  1.0000
  Zn  Zn1       1.0  0.8373479690515423  0.45800215781547693  0.6355591052035439  1.0000
  Zn  Zn2       1.0  0.005475752913094878  0.46533808965227497  0.6492852654926529  1.0000
  C   C41       1.0  0.9214347285158825  0.4564801196376347  0.8796402697195251  1.0000
  C   C42       1.0  0.9213908297581795  0.4668618466331549  0.40520437812150045  1.0000
  C   C43       1.0  0.9214613955432654  0.6988750886277637  0.6372145960631375  1.0000
  C   C44       1.0  0.9213641050361353  0.22446531475227194  0.6476301165510379  1.0000
  O   O3        1.0  0.9851980287841385  0.47137347895065274  0.4588033710383572  1.0000
  O   O4        1.0  0.9852326269863274  0.457535310095482  0.8364587411130702  1.0000
  O   O5        1.0  0.9852533009701758  0.6532722754351434  0.6406982240293413  1.0000
  O   O6        1.0  0.9851772974226028  0.2756365204051898  0.6545637860534024  1.0000
  O   O7        1.0  0.8576463671682727  0.647703724560583  0.6302805799518978  1.0000
  O   O8        1.0  0.8576256935053238  0.4519683196096955  0.8260410275715804  1.0000
  O   O9        1.0  0.8575910951997189  0.46580644331714005  0.4483840959630534  1.0000
  O   O10       1.0  0.8575703638421089  0.2700694754754993  0.6441446083558857  1.0000
