data_image0
_chemical_formula_structural       NC10NC3NCH9C7OC3NC3H11C7OC6H10Zn2C4O8
_chemical_formula_sum              "N4 C44 H30 O10 Zn2"
_cell_length_a       19.437513618241372
_cell_length_b       10.298746005989749
_cell_length_c       10.299382801718286
_cell_angle_alpha    85.57508548997963
_cell_angle_beta     90.32786270847616
_cell_angle_gamma    89.53148363849229

_space_group_name_H-M_alt    "P 1"
_space_group_IT_number       1

loop_
  _space_group_symop_operation_xyz
  'x, y, z'

loop_
  _atom_site_type_symbol
  _atom_site_label
  _atom_site_symmetry_multiplicity
  _atom_site_fract_x
  _atom_site_fract_y
  _atom_site_fract_z
  _atom_site_occupancy
  N   N1        1.0  0.6482225859549199  0.4103310071249735  0.5758397980925554  1.0000
  C   C1        1.0  0.5892911489089343  0.4273419793144162  0.5728663430154268  1.0000
  C   C2        1.0  0.5158530457193645  0.44859563465556995  0.5691755265447842  1.0000
  C   C3        1.0  0.4740834318068882  0.34739636581298905  0.5575010107819058  1.0000
  C   C4        1.0  0.3981953533216888  0.357460993504769  0.5502811729253392  1.0000
  C   C5        1.0  0.3586190240752224  0.43832404678444337  0.6160358838452429  1.0000
  C   C6        1.0  0.2824372128276931  0.42971406384009736  0.607590481498991  1.0000
  C   C7        1.0  0.2492901489854129  0.3083606145248232  0.612215607616428  1.0000
  C   C8        1.0  0.1775558923716429  0.30198747341373555  0.605046586726234  1.0000
  C   C9        1.0  0.1379979827074877  0.4164951047261187  0.5936146005435838  1.0000
  C   C10       1.0  0.0641492461215234  0.40978373689553393  0.5862774373023747  1.0000
  N   N2        1.0  0.0047799599249846  0.404388387326887  0.5803788165510853  1.0000
  C   C11       1.0  0.1704283224733972  0.537538049073319  0.5897347042340157  1.0000
  C   C12       1.0  0.24214699784942184  0.5441652084265194  0.596965784798432  1.0000
  C   C13       1.0  0.3872989915090664  0.5306266901326939  0.7059697601759696  1.0000
  N   N3        1.0  0.44429253079666586  0.5938416824246879  0.6855750647989103  1.0000
  C   C14       1.0  0.48814721888285484  0.5845667954803704  0.5724660613758477  1.0000
  H   H1        1.0  0.4964603305655465  0.25233148660794447  0.5453654977436102  1.0000
  H   H2        1.0  0.3734824394618147  0.2879367858907822  0.4919525538666174  1.0000
  H   H3        1.0  0.2787308179471724  0.2184431894377199  0.6232229296526779  1.0000
  H   H4        1.0  0.1529532000393439  0.20775449121163003  0.6089195808470103  1.0000
  H   H5        1.0  0.1403020090476987  0.6268007799834505  0.5810394324082508  1.0000
  H   H6        1.0  0.2662682082106448  0.6388110198697141  0.5930773929987754  1.0000
  H   H7        1.0  0.3572866235712966  0.5510234301595212  0.7903395149192103  1.0000
  H   H8        1.0  0.530905505751877  0.6548852383910255  0.5782400445354106  1.0000
  H   H9        1.0  0.4584945330596292  0.6126673757947221  0.48182468034876447  1.0000
  C   C15       1.0  0.8264716963865151  0.025958078497161363  0.5780917797036105  1.0000
  C   C16       1.0  0.8586780946907662  0.033905835167082676  0.45599822063441686  1.0000
  C   C17       1.0  0.8742398626070012  0.9208131684301594  0.3935636068468109  1.0000
  C   C18       1.0  0.8586786193724437  0.7986692172788845  0.45594909050015286  1.0000
  C   C19       1.0  0.8265374305602485  0.7887511832669488  0.5781381708586357  1.0000
  C   C20       1.0  0.810472335183057  0.9029605382605804  0.6382776085108315  1.0000
  C   C21       1.0  0.9088342004002697  0.9290047758331181  0.2651892207371489  1.0000
  O   O1        1.0  0.9508460846036599  0.8403221415307494  0.24051193278294258  1.0000
  C   C22       1.0  0.8957701632463632  0.037742443414022775  0.16481779797705487  1.0000
  C   C23       1.0  0.8306258206937369  0.09821813997778395  0.1518811184036779  1.0000
  C   C24       1.0  0.8185871477348782  0.20007284970239603  0.05582162218688502  1.0000
  N   N4        1.0  0.752341302955909  0.2614092592957489  0.04377429116420162  1.0000
  C   C25       1.0  0.871735612855918  0.24105848164533916  0.9713645503135009  1.0000
  C   C26       1.0  0.9362522838280118  0.18042815361951647  0.9824371790784365  1.0000
  C   C27       1.0  0.9482374964921584  0.0789987551504181  0.078191788632894  1.0000
  H   H10       1.0  0.7665713968679656  0.21822016082456863  0.8096634357563155  1.0000
  H   H11       1.0  0.8723681925015025  0.1281862795531341  0.4099509803924337  1.0000
  H   H12       1.0  0.8710954016826575  0.7112622454317162  0.40840956744378154  1.0000
  H   H13       1.0  0.7856504079926515  0.8960821199563912  0.7323915703981663  1.0000
  H   H14       1.0  0.7660654730623977  0.5626887301593241  0.8092140268172023  1.0000
  H   H15       1.0  0.7889500009505678  0.06551997199967707  0.21531280332940317  1.0000
  H   H16       1.0  0.7123555979277791  0.23163278899215434  0.10621603619583664  1.0000
  H   H17       1.0  0.7428096560603127  0.3371708671834286  0.9724149980539405  1.0000
  H   H18       1.0  0.8630785905606922  0.31954112957752634  0.896767668284022  1.0000
  H   H19       1.0  0.9770855541372557  0.2121043443416415  0.9166624728657768  1.0000
  H   H20       1.0  0.998695193540146  0.03351701046455857  0.08536163957974474  1.0000
  C   C28       1.0  0.8265731933453189  0.40728024657664785  0.1967460636136329  1.0000
  C   C29       1.0  0.8988525556109486  0.4069391195486971  0.19636259439273407  1.0000
  C   C30       1.0  0.9353080879920982  0.4052788616952958  0.07911097730369931  1.0000
  C   C31       1.0  0.8986849037555009  0.406969952918917  0.961114893130862  1.0000
  C   C32       1.0  0.8264359164684092  0.4074290026620362  0.9594838589530781  1.0000
  C   C33       1.0  0.790799126609661  0.40723673585894593  0.07787058252819956  1.0000
  C   C34       1.0  0.011625818645423669  0.40630274560976565  0.07845416631422664  1.0000
  O   O2        1.0  0.04194485757731958  0.46651151431869664  0.9843169083830561  1.0000
  C   C35       1.0  0.053548285750598223  0.3390151164399855  0.1844900345799858  1.0000
  C   C36       1.0  0.11821953617020675  0.3884013792133718  0.21641774917708623  1.0000
  C   C37       1.0  0.15846435101379064  0.3247913398591422  0.31518072381805795  1.0000
  C   C38       1.0  0.13488038714629647  0.21087101490960714  0.38223760141580665  1.0000
  C   C39       1.0  0.07112132716143793  0.16002246158808697  0.35029839381165395  1.0000
  C   C40       1.0  0.030680487784678467  0.2232570231541262  0.2516349618046523  1.0000
  H   H21       1.0  0.6901713903871738  0.40993586845604235  0.4046343933584422  1.0000
  H   H22       1.0  0.9268812773309874  0.4094226979863944  0.2873184277493823  1.0000
  H   H23       1.0  0.926720448646323  0.4066740542811593  0.8705203202813014  1.0000
  H   H24       1.0  0.7350771842721804  0.4075005178711748  0.07736197315385462  1.0000
  H   H25       1.0  0.7986811374132476  0.4087104204168084  0.6313155440642428  1.0000
  H   H26       1.0  0.13732814623149525  0.47676356080059024  0.16573082831471364  1.0000
  H   H27       1.0  0.20799192345511686  0.3638530456645739  0.33968629798739824  1.0000
  H   H28       1.0  0.16613019202862045  0.16171873891250121  0.4585759074547151  1.0000
  H   H29       1.0  0.053132555667989134  0.0711856679972962  0.40162830524343773  1.0000
  H   H30       1.0  0.9819787581511903  0.1808991022599855  0.22695348345290367  1.0000
  Zn  Zn1       1.0  0.7511173458761813  0.4086126073689422  0.5771571695136242  1.0000
  Zn  Zn2       1.0  0.9018852033738423  0.40609611870224516  0.5790721143534696  1.0000
  C   C41       1.0  0.8264599047131818  0.40222678236860965  0.8153097831319973  1.0000
  C   C42       1.0  0.8265442910354628  0.4124835550071948  0.3409196492123827  1.0000
  C   C43       1.0  0.8265224032316251  0.6445660822740384  0.5729541966864231  1.0000
  C   C44       1.0  0.826481740923537  0.17014269553793615  0.5832753041482199  1.0000
  O   O3        1.0  0.8837502068549553  0.4132691722890589  0.39003233282348293  1.0000
  O   O4        1.0  0.8836833041864826  0.3995302285371005  0.7676501244398859  1.0000
  O   O5        1.0  0.8837330009936609  0.595222291146609  0.5719462639646977  1.0000
  O   O6        1.0  0.883700458619243  0.2175771198102845  0.5857360952711261  1.0000
  O   O7        1.0  0.7693020391811114  0.5971316071210697  0.5704931879356596  1.0000
  O   O8        1.0  0.7692523425177467  0.40144110493555774  0.7661969792602776  1.0000
  O   O9        1.0  0.7693192455090412  0.415180003122414  0.38857762624099923  1.0000
  O   O10       1.0  0.769269497252194  0.2194879413730726  0.58428148605588  1.0000
