data_image0
_chemical_formula_structural       NC10NC3NCH9C7OC4NC3H9C7OC3FC3H9Zn2C4O8
_chemical_formula_sum              "N4 C45 H27 O10 F1 Zn2"
_cell_length_a       19.437513618241372
_cell_length_b       10.299371701877257
_cell_length_c       10.29938172300155
_cell_angle_alpha    85.59571719418345
_cell_angle_beta     90.33093660507195
_cell_angle_gamma    89.53225479237402

_space_group_name_H-M_alt    "P 1"
_space_group_IT_number       1

loop_
  _space_group_symop_operation_xyz
  'x, y, z'

loop_
  _atom_site_type_symbol
  _atom_site_label
  _atom_site_symmetry_multiplicity
  _atom_site_fract_x
  _atom_site_fract_y
  _atom_site_fract_z
  _atom_site_occupancy
  N   N1        1.0  0.6481940088014537  0.41011031532398845  0.576253414512848  1.0000
  C   C1        1.0  0.5892626261534416  0.42711965870329305  0.5732848747922421  1.0000
  C   C2        1.0  0.5158245916103301  0.4483712807583198  0.5696001994848816  1.0000
  C   C3        1.0  0.47405382907222493  0.34717956612314516  0.5578965940356575  1.0000
  C   C4        1.0  0.398165629350657  0.3572428329636317  0.5506796926516535  1.0000
  C   C5        1.0  0.35859180327018425  0.43810395404924973  0.6164573554242834  1.0000
  C   C6        1.0  0.282409684921733  0.42949407180567345  0.6080095167322557  1.0000
  C   C7        1.0  0.2492617669823279  0.30815103574874536  0.6125996634069868  1.0000
  C   C8        1.0  0.177527257267407  0.3017779024305747  0.6054288438768973  1.0000
  C   C9        1.0  0.1379699549416505  0.416275193867949  0.594029900468505  1.0000
  C   C10       1.0  0.0641209577877299  0.409563849686428  0.58669084203293  1.0000
  N   N2        1.0  0.0047514621122217  0.40416851911597007  0.5807906977129922  1.0000
  C   C11       1.0  0.1704011672249111  0.5373078049421889  0.5901848903025373  1.0000
  C   C12       1.0  0.2421200995055378  0.5439349399231894  0.5974178423546614  1.0000
  C   C13       1.0  0.38727504597411583  0.5304054738842094  0.7064173535376059  1.0000
  N   N3        1.0  0.4442685248546424  0.593613733630517  0.6860409726585845  1.0000
  C   C14       1.0  0.488119959804362  0.5843313902293157  0.5729298833555769  1.0000
  H   H1        1.0  0.4964296159962789  0.2521216982131069  0.5457337606905193  1.0000
  H   H2        1.0  0.37345051291514236  0.28772015610923507  0.49233134940498124  1.0000
  H   H3        1.0  0.2787020160742643  0.2182418777453503  0.6235810280021694  1.0000
  H   H4        1.0  0.1529239096236558  0.20755302677212395  0.6092746744178685  1.0000
  H   H5        1.0  0.1402753333198754  0.6265624912921748  0.5815153753624651  1.0000
  H   H6        1.0  0.2662419680931968  0.6385726094225972  0.5935567331287528  1.0000
  H   H7        1.0  0.357265213896878  0.5508066565825191  0.7907925465999099  1.0000
  H   H8        1.0  0.5308789791066527  0.6546444140372543  0.578724091628785  1.0000
  H   H9        1.0  0.4584649551729367  0.6124230446383601  0.48229706599200517  1.0000
  C   C15       1.0  0.8264400656559332  0.02576946778311795  0.5783946670092335  1.0000
  C   C16       1.0  0.8298037152241414  0.035019150763966334  0.4417759059422077  1.0000
  C   C17       1.0  0.8307190434186271  0.9225285244811139  0.3727968518312694  1.0000
  C   C18       1.0  0.8298121775077435  0.7997507756368755  0.4420934017700613  1.0000
  C   C19       1.0  0.8265119984451051  0.7884991952591708  0.5786607879715704  1.0000
  C   C20       1.0  0.8246640253326215  0.9021126352209042  0.6460031091574205  1.0000
  C   C21       1.0  0.8349933710033284  0.9321397681363276  0.22860477058531603  1.0000
  O   O1        1.0  0.8681150087603364  0.845826857452081  0.1740817250433102  1.0000
  C   C22       1.0  0.801681681776466  0.03958709764409818  0.1462706781442058  1.0000
  C   C23       1.0  0.8311659096007759  0.08370918670584415  0.026678526266323832  1.0000
  C   C24       1.0  0.7996682645598897  0.18411702898563953  0.9474888458396249  1.0000
  C   C25       1.0  0.830487549312737  0.22940035878037834  0.8257275871405629  1.0000
  N   N4        1.0  0.855264880167786  0.26579855393777496  0.7278492315645488  1.0000
  C   C26       1.0  0.738172893178815  0.24033058148344266  0.9868771583228044  1.0000
  C   C27       1.0  0.7081081456670563  0.19600709216897538  0.10472241542486116  1.0000
  C   C28       1.0  0.7394082530817906  0.09590001325925668  0.1838981847816541  1.0000
  H   H10       1.0  0.8211504653936391  0.21561161229675396  0.8363090788665339  1.0000
  H   H11       1.0  0.8324862562189795  0.1298845759036893  0.3889247059360783  1.0000
  H   H12       1.0  0.8310277203043436  0.7128793587801083  0.3890979004458037  1.0000
  H   H13       1.0  0.8220712736791982  0.8941779076454539  0.7513264410051972  1.0000
  H   H14       1.0  0.8258232863904182  0.456706799147664  0.6311760148726349  1.0000
  H   H15       1.0  0.8788830519396981  0.04081473364417909  0.9957096224294633  1.0000
  H   H16       1.0  0.7133800967543946  0.3179444755203029  0.926323639273182  1.0000
  H   H17       1.0  0.6602737024840722  0.23891938869452134  0.13453684847105718  1.0000
  H   H18       1.0  0.7145385214642818  0.061627760098682094  0.27373584626072134  1.0000
  C   C29       1.0  0.826533940380288  0.40703223594238547  0.1971607643684996  1.0000
  C   C30       1.0  0.8482939184533091  0.2762148997475826  0.2062535495668063  1.0000
  C   C31       1.0  0.8600165342621455  0.21067802852978867  0.09364059836473282  1.0000
  C   C32       1.0  0.8482281428595766  0.2765091305415823  0.9709867644566539  1.0000
  C   C33       1.0  0.8264180977350555  0.40723641247565956  0.9598947161108162  1.0000
  C   C34       1.0  0.8158706278235939  0.4718425674394444  0.07357499398392675  1.0000
  C   C35       1.0  0.8822971833512979  0.07213802125877211  0.10312137937428312  1.0000
  O   O2        1.0  0.8610997979158451  0.9992470192764163  0.01864490987294043  1.0000
  C   C36       1.0  0.9286299003325633  0.016292698293446595  0.20833704528146457  1.0000
  C   C37       1.0  0.9230750458384429  0.8844241630566184  0.253493621945142  1.0000
  C   C38       1.0  0.9670641912100091  0.8304838750644227  0.35159136840340866  1.0000
  F   F1        1.0  0.9609597667557253  0.703518182082466  0.3951383040550289  1.0000
  C   C39       1.0  0.01731960390594134  0.9072701255864485  0.4047258013041939  1.0000
  C   C40       1.0  0.023865127009624842  0.03791670154798443  0.35951635368273704  1.0000
  C   C41       1.0  0.9800124508126489  0.09226648647827362  0.2614914628817968  1.0000
  H   H19       1.0  0.7844594889798194  0.6533040374901358  0.38735612590498625  1.0000
  H   H20       1.0  0.8554169432463534  0.2247056289957059  0.30113191348622803  1.0000
  H   H21       1.0  0.8567508797407719  0.22581752209591688  0.8840518363171426  1.0000
  H   H22       1.0  0.7990949832617861  0.572692689885741  0.06576107457312941  1.0000
  H   H23       1.0  0.8174851506263312  0.4571265765977761  0.6281961744205198  1.0000
  H   H24       1.0  0.8843116090222004  0.8235537521299754  0.2136060070647392  1.0000
  H   H25       1.0  0.051394145783422385  0.8654937828598525  0.48056176701467623  1.0000
  H   H26       1.0  0.06316825349740673  0.09703037789204849  0.4000491525780936  1.0000
  H   H27       1.0  0.9867862474335557  0.19311271000993324  0.22635204282344157  1.0000
  Zn  Zn1       1.0  0.7510887918014106  0.40839215407402296  0.5775702841322246  1.0000
  Zn  Zn2       1.0  0.901856682695639  0.405876013647128  0.5794844941888238  1.0000
  C   C42       1.0  0.8264379900270501  0.40202418059779643  0.8157198250849689  1.0000
  C   C43       1.0  0.8265091309858583  0.4122455983049722  0.3413351021767286  1.0000
  C   C44       1.0  0.8264956443972381  0.6443257303461969  0.5734352987504685  1.0000
  C   C45       1.0  0.8264514250114657  0.16994248912722476  0.5836196965519098  1.0000
  O   O3        1.0  0.8837164330530237  0.4130347224039459  0.3904477577576517  1.0000
  O   O4        1.0  0.8836600285814487  0.3993243843093017  0.7680596364592374  1.0000
  O   O5        1.0  0.8837058137154201  0.5949859632860064  0.5724131579192611  1.0000
  O   O6        1.0  0.8836705964878463  0.21737315355000386  0.586094138273509  1.0000
  O   O7        1.0  0.7692748265595226  0.5968950150311942  0.5709606393874829  1.0000
  O   O8        1.0  0.7692290415800753  0.40123499634388327  0.7666070492267223  1.0000
  O   O9        1.0  0.7692854463302335  0.41494528876364556  0.38899360911722236  1.0000
  O   O10       1.0  0.7692396097465817  0.21928371064698804  0.5846400869971424  1.0000
