data_image0
_chemical_formula_structural       NC8NC6H8C7OC6OCH12C7OC3NC3H11Zn2C4O8
_chemical_formula_sum              "N3 C45 H31 O11 Zn2"
_cell_length_a       17.457602349358154
_cell_length_b       10.299359160628079
_cell_length_c       10.298749378158432
_cell_angle_alpha    85.56206142688012
_cell_angle_beta     92.88501269270333
_cell_angle_gamma    91.71072845926622

_space_group_name_H-M_alt    "P 1"
_space_group_IT_number       1

loop_
  _space_group_symop_operation_xyz
  'x, y, z'

loop_
  _atom_site_type_symbol
  _atom_site_label
  _atom_site_symmetry_multiplicity
  _atom_site_fract_x
  _atom_site_fract_y
  _atom_site_fract_z
  _atom_site_occupancy
  N   N1        1.0  0.7226414634542422  0.4529726603247628  0.626547727419692  1.0000
  C   C1        1.0  0.6615516736852306  0.40704687574158704  0.6159256611228912  1.0000
  C   C2        1.0  0.585553394417607  0.34992091358293687  0.6027213541623053  1.0000
  C   C3        1.0  0.5270412228213054  0.39007857186019024  0.6776306732342834  1.0000
  C   C4        1.0  0.4524815847674139  0.335070889699288  0.6650411084438363  1.0000
  C   C5        1.0  0.3903794581536161  0.3774714453457635  0.7443729034734277  1.0000
  C   C6        1.0  0.3158319921503346  0.3959443700840277  0.6886063682916206  1.0000
  C   C7        1.0  0.2573197841879398  0.43591808985064806  0.7636236296218903  1.0000
  C   C8        1.0  0.1813341007145317  0.4549970436424997  0.7056414983599539  1.0000
  N   N2        1.0  0.12025452621297882  0.4703301425988653  0.6590240151431419  1.0000
  C   C9        1.0  0.2728629842689496  0.45766199700732035  0.8949160193209378  1.0000
  C   C10       1.0  0.3466258743106409  0.4395780424682749  0.9510702339848394  1.0000
  C   C11       1.0  0.4051265624489871  0.3997843494785911  0.8765107574776168  1.0000
  C   C12       1.0  0.4377224708207518  0.23922821275648998  0.5761090927935608  1.0000
  C   C13       1.0  0.4962230273577535  0.19934921391061033  0.5015998466928835  1.0000
  C   C14       1.0  0.5699979773848406  0.25446923557888446  0.5147394254672399  1.0000
  H   H1        1.0  0.5394092461048777  0.4652703136703311  0.7442763428978252  1.0000
  H   H2        1.0  0.3034739804235115  0.38098096161613926  0.586570666253496  1.0000
  H   H3        1.0  0.2280147825429891  0.48854145030871243  0.9537609217837226  1.0000
  H   H4        1.0  0.3584705091194711  0.45609918314326636  0.052732822491158404  1.0000
  H   H5        1.0  0.46161290598517535  0.3847888061257998  0.922619743871103  1.0000
  H   H6        1.0  0.38122609531599655  0.19389211596372968  0.5654509750241761  1.0000
  H   H7        1.0  0.48436896697569415  0.12527405172420947  0.4337558747136936  1.0000
  H   H8        1.0  0.6148460645652828  0.2227200225843724  0.45640559400301406  1.0000
  C   C15       1.0  0.9213613753149417  0.08026931565090556  0.6427473060404338  1.0000
  C   C16       1.0  0.8578953067692303  0.08278600758489185  0.5531599231510465  1.0000
  C   C17       1.0  0.8264346484716283  0.9670948438948445  0.5069261889275487  1.0000
  C   C18       1.0  0.8580780814667428  0.8475324542754312  0.5534299781748857  1.0000
  C   C19       1.0  0.921541953707104  0.8430237403765287  0.6428363076015378  1.0000
  C   C20       1.0  0.9529240501455016  0.9599672054747429  0.6867779213749925  1.0000
  C   C21       1.0  0.7588879910318304  0.9718653708643015  0.4134686975430515  1.0000
  O   O1        1.0  0.7101335009725117  0.05860885221399492  0.42105396331234  1.0000
  C   C22       1.0  0.7466485529480488  0.8783007160980665  0.3114135605776416  1.0000
  C   C23       1.0  0.8090464364080648  0.8276806042678264  0.25244989702871257  1.0000
  C   C24       1.0  0.7967059759790167  0.7407624574672799  0.1553525908719391  1.0000
  C   C25       1.0  0.7221694484888216  0.7035969118886864  0.11449915189536708  1.0000
  C   C26       1.0  0.6595132007670513  0.7552406191932616  0.17212985065382913  1.0000
  C   C27       1.0  0.6717835095274929  0.8422145894554666  0.26926785209307225  1.0000
  O   O2        1.0  0.712868121381678  0.6159711069882385  0.016833518779431733  1.0000
  C   C28       1.0  0.6405631559866319  0.5699736181049755  0.9660561775453065  1.0000
  H   H9        1.0  0.04092129834990921  0.28274942781489876  0.8122005701701698  1.0000
  H   H10       1.0  0.8332180492143112  0.1750392695328582  0.5181569531919072  1.0000
  H   H11       1.0  0.8326057690347819  0.757785600043972  0.5208955936037052  1.0000
  H   H12       1.0  0.0018796620965872979  0.9572213297884885  0.7557503606254503  1.0000
  H   H13       1.0  0.9456909822150903  0.5137800887664329  0.6775294463016184  1.0000
  H   H14       1.0  0.8673778425858161  0.8563132757239351  0.2803472355890717  1.0000
  H   H15       1.0  0.8453925514804077  0.7024437590066751  0.11114416903678914  1.0000
  H   H16       1.0  0.6011495805238568  0.7288836555485231  0.14258513598092448  1.0000
  H   H17       1.0  0.6226680481480587  0.8804688505401908  0.31239039950516445  1.0000
  H   H18       1.0  0.6501332796082636  0.5020017182952178  0.8903570193594268  1.0000
  H   H19       1.0  0.6068468551814763  0.6528532072238917  0.9207889242960192  1.0000
  H   H20       1.0  0.6083644540779535  0.5169925035660721  0.04496838094470745  1.0000
  C   C29       1.0  0.9214162818907896  0.46167301021495155  0.2613878425848086  1.0000
  C   C30       1.0  0.9633517959893536  0.5803711494787411  0.2548047448419539  1.0000
  C   C31       1.0  0.9837873168067421  0.6411604377552327  0.13417438091900147  1.0000
  C   C32       1.0  0.9633548567130171  0.5804201456569713  0.01956097016973346  1.0000
  C   C33       1.0  0.9214870163966475  0.46162006442264425  0.024195724343828884  1.0000
  C   C34       1.0  0.900607214456598  0.4031732657140872  0.14553874588524573  1.0000
  C   C35       1.0  0.028692918036097526  0.7658915705170608  0.12717399744255098  1.0000
  O   O3        1.0  0.07663653080056876  0.7863277342165786  0.039744812996993284  1.0000
  C   C36       1.0  0.019210723093082693  0.8674308234660779  0.21929911624086884  1.0000
  C   C37       1.0  0.9474400970833055  0.8868722746240183  0.2701434904942648  1.0000
  C   C38       1.0  0.9388811866247474  0.9840029442207532  0.35615417648273273  1.0000
  N   N3        1.0  0.8658413415528567  0.0026665953903446393  0.4078626985050531  1.0000
  C   C39       1.0  0.00220757790760584  0.06302028900774115  0.39073165134180843  1.0000
  C   C40       1.0  0.07337408288669955  0.04550316214471284  0.3393787892980511  1.0000
  C   C41       1.0  0.08188885344820607  0.9486822434372308  0.2537413330071083  1.0000
  H   H21       1.0  0.843195361756385  0.23642263276264064  0.48135000511058257  1.0000
  H   H22       1.0  0.9808835708351399  0.6249833133830536  0.34378712431549796  1.0000
  H   H23       1.0  0.9795460278037911  0.6266499801051264  0.9264815513890241  1.0000
  H   H24       1.0  0.8682861524321429  0.3116761857467416  0.14986163422683463  1.0000
  H   H25       1.0  0.8426555406529703  0.23692203574128934  0.8256914601910261  1.0000
  H   H26       1.0  0.8979236877425489  0.8277021266052262  0.24205053879941407  1.0000
  H   H27       1.0  0.8182534924920606  0.9443158308205148  0.38274233288396564  1.0000
  H   H28       1.0  0.8588289544354143  0.07488054766231  0.4717847193425386  1.0000
  H   H29       1.0  0.9963301558661524  0.13837981798705945  0.4569920172706725  1.0000
  H   H30       1.0  0.12207145310877143  0.1070974290963691  0.36599843876024685  1.0000
  H   H31       1.0  0.1376220951563536  0.936470193575512  0.2152916322743803  1.0000
  Zn  Zn1       1.0  0.8373840043549107  0.45797817142250596  0.6359271812813085  1.0000
  Zn  Zn2       1.0  0.005511969527943306  0.4653139825718666  0.6496551935436827  1.0000
  C   C42       1.0  0.9214707262012629  0.45645615828454833  0.8800079615551677  1.0000
  C   C43       1.0  0.9214270840334972  0.46683771448458544  0.40557469084856823  1.0000
  C   C44       1.0  0.9215033841499872  0.6988471395021287  0.6376434810794467  1.0000
  C   C45       1.0  0.921394368351484  0.22444517040196255  0.6479392357028833  1.0000
  O   O4        1.0  0.9852343945668627  0.4713492725787458  0.45917482273762644  1.0000
  O   O5        1.0  0.9852686507513047  0.4575113313828787  0.8368266993340283  1.0000
  O   O6        1.0  0.9852941624789715  0.6532450765463942  0.6411155965080833  1.0000
  O   O7        1.0  0.9852088254616763  0.27561553420931717  0.6548858234966028  1.0000
  O   O8        1.0  0.8576870910473544  0.6476766172831179  0.6306965466368601  1.0000
  O   O9        1.0  0.8576615796791528  0.4519444324827053  0.8264075803926825  1.0000
  O   O10       1.0  0.8576273233901789  0.46578232853158896  0.44875414225106836  1.0000
  O   O11       1.0  0.8576017542886885  0.27004858086613526  0.6444652403854856  1.0000
