data_image0
_chemical_formula_structural       NC12NC2H8C6SCOC6H10C7OC6H10Zn2C4O8
_chemical_formula_sum              "N2 C44 H28 S1 O10 Zn2"
_cell_length_a       17.80743265337812
_cell_length_b       10.302038109246572
_cell_length_c       10.299382801718286
_cell_angle_alpha    85.57853228507349
_cell_angle_beta     91.51478421497153
_cell_angle_gamma    89.45358301258409

_space_group_name_H-M_alt    "P 1"
_space_group_IT_number       1

loop_
  _space_group_symop_operation_xyz
  'x, y, z'

loop_
  _atom_site_type_symbol
  _atom_site_label
  _atom_site_symmetry_multiplicity
  _atom_site_fract_x
  _atom_site_fract_y
  _atom_site_fract_z
  _atom_site_occupancy
  N   N1        1.0  0.7079488274099232  0.4060325080356111  0.6015778271152685  1.0000
  C   C1        1.0  0.6571475204766464  0.43556882866679714  0.5328851564488684  1.0000
  C   C2        1.0  0.5939456778316049  0.47230986837862754  0.4474401216174224  1.0000
  C   C3        1.0  0.6057063811309874  0.5262892310043985  0.3208314818839133  1.0000
  C   C4        1.0  0.5444111589193581  0.561527578342111  0.2377821455857727  1.0000
  C   C5        1.0  0.4712011042783683  0.5430498165304065  0.28068160203489945  1.0000
  C   C6        1.0  0.4584635169986392  0.488951784302055  0.4077583555969433  1.0000
  C   C7        1.0  0.5206160590340765  0.45371668638620766  0.49079118107554365  1.0000
  C   C8        1.0  0.38068450727034453  0.4693608036656336  0.45351787064798477  1.0000
  C   C9        1.0  0.3618798671464235  0.4965691792073148  0.5805635837911358  1.0000
  C   C10       1.0  0.2886398666051826  0.47813298983154495  0.6235036086525219  1.0000
  C   C11       1.0  0.2332613336757562  0.43223440282219516  0.5402358310014963  1.0000
  C   C12       1.0  0.1578843651185118  0.41324583602651743  0.5845766669010675  1.0000
  N   N2        1.0  0.09728662025808742  0.3979803053787836  0.6202236486065105  1.0000
  C   C13       1.0  0.25137434848679696  0.4048572776438104  0.41373304928104115  1.0000
  C   C14       1.0  0.3245615442523424  0.4233081912923282  0.3705371453732327  1.0000
  H   H1        1.0  0.6621811797975684  0.5411016730309766  0.2863975357739392  1.0000
  H   H2        1.0  0.5536351380475755  0.6035924839579356  0.140011734202244  1.0000
  H   H3        1.0  0.4245793852956077  0.572663427899825  0.2150968199120069  1.0000
  H   H4        1.0  0.512090235543291  0.41026677713904025  0.58843693708525  1.0000
  H   H5        1.0  0.4035508212259554  0.5337542970151852  0.6461409402359388  1.0000
  H   H6        1.0  0.2751822473953353  0.4999953907963357  0.7215136679542669  1.0000
  H   H7        1.0  0.2089866678897434  0.3689392303630301  0.34856883259559757  1.0000
  H   H8        1.0  0.33749043506090404  0.39991068057603685  0.27283017922542663  1.0000
  C   C15       1.0  0.9025501749225795  0.020729369846923307  0.6108573239978368  1.0000
  C   C16       1.0  0.8383429552048705  0.026811939329711043  0.5282629880924645  1.0000
  C   C17       1.0  0.8067495780270736  0.9128724617818841  0.4867004858759054  1.0000
  C   C18       1.0  0.8385845996979613  0.7916743332339826  0.5282205546638781  1.0000
  C   C19       1.0  0.9026924851621713  0.7832733413296064  0.6109557135519073  1.0000
  C   C20       1.0  0.9343833433245461  0.8984599821739322  0.6517619955768503  1.0000
  S   S1        1.0  0.7252500581305007  0.9220737127599121  0.3801885437211119  1.0000
  C   C21       1.0  0.78051068996776  0.9293978402295751  0.23641339566513597  1.0000
  O   O1        1.0  0.7986339088922366  0.8237465899159062  0.1909313950226874  1.0000
  C   C22       1.0  0.8052997883828436  0.055039049655901895  0.17210316777530799  1.0000
  C   C23       1.0  0.8584343750762056  0.0562603539953026  0.07314153777550114  1.0000
  C   C24       1.0  0.8825909542778072  0.17408534988349578  0.012575467975325827  1.0000
  C   C25       1.0  0.8540195898571068  0.29192038973140044  0.049708336127402  1.0000
  C   C26       1.0  0.8011111994789727  0.2921667366228353  0.1473277579528265  1.0000
  C   C27       1.0  0.7767041534467749  0.17465061855572772  0.20820200448952275  1.0000
  H   H9        1.0  0.023486226113300646  0.21657029794254612  0.7667025592726855  1.0000
  H   H10       1.0  0.8127900792270766  0.11985662519123297  0.49576350865902286  1.0000
  H   H11       1.0  0.813273844044529  0.7044403865366115  0.4952441406867143  1.0000
  H   H12       1.0  0.9838829103049876  0.8928504280186413  0.7154333988673547  1.0000
  H   H13       1.0  0.9271973676337137  0.45276198986827954  0.6420957860696273  1.0000
  H   H14       1.0  0.8816796675827402  0.9662092516796479  0.04295727519333936  1.0000
  H   H15       1.0  0.9235862819042323  0.17397646357606078  0.9368413510701346  1.0000
  H   H16       1.0  0.872806919698978  0.3830273285929946  0.0027339037736129335  1.0000
  H   H17       1.0  0.7788508311687705  0.38358002820760007  0.17579853960272396  1.0000
  H   H18       1.0  0.7352689743143127  0.17815609893049933  0.2827827210964686  1.0000
  C   C28       1.0  0.9026962444492751  0.4019265941171457  0.22954029599797288  1.0000
  C   C29       1.0  0.9816207520167172  0.40115755782398166  0.23201652104586934  1.0000
  C   C30       1.0  0.021427757916920864  0.39928196070938693  0.11620715128669845  1.0000
  C   C31       1.0  0.9814376895347107  0.4011893739327663  0.9967621886718909  1.0000
  C   C32       1.0  0.9025463604406714  0.4020761146153695  0.9922726696342106  1.0000
  C   C33       1.0  0.8636331989163317  0.4020949427600655  0.10924941937658206  1.0000
  C   C34       1.0  0.10476203712454857  0.3998535760329698  0.11856990000149215  1.0000
  O   O2        1.0  0.13787409414582275  0.45986316982385755  0.025636103511175845  1.0000
  C   C35       1.0  0.1505325283479968  0.3323396337532114  0.2262600673759867  1.0000
  C   C36       1.0  0.22115404975555775  0.3813268253488902  0.2607496805188343  1.0000
  C   C37       1.0  0.2650929896031451  0.3174992083258992  0.3611008162909317  1.0000
  C   C38       1.0  0.2393302490155964  0.20375568928464305  0.427217228887081  1.0000
  C   C39       1.0  0.16970464731941592  0.15330128220320183  0.39275211872845905  1.0000
  C   C40       1.0  0.1255516262511549  0.21675470468380564  0.29249274563052974  1.0000
  H   H19       1.0  0.7537542594457268  0.4053890877732984  0.4320320916120215  1.0000
  H   H20       1.0  0.012226591138329468  0.40347434725280173  0.324081465022487  1.0000
  H   H21       1.0  0.012050722256761404  0.40072755222190226  0.9072768165611778  1.0000
  H   H22       1.0  0.8027883503108741  0.4026886103140046  0.106536201239539  1.0000
  H   H23       1.0  0.8722399975160928  0.4035214714561619  0.6630063262074897  1.0000
  H   H24       1.0  0.24202762208842454  0.4695470370481274  0.2108245046459447  1.0000
  H   H25       1.0  0.3191776084338178  0.35625488673300465  0.3875684648489157  1.0000
  H   H26       1.0  0.27344853721371143  0.15443438740798276  0.5047887460064766  1.0000
  H   H27       1.0  0.15005382474074436  0.06459998185646953  0.4433645606176382  1.0000
  H   H28       1.0  0.07236847143996128  0.17469899559170865  0.2658816538984532  1.0000
  Zn  Zn1       1.0  0.820303305487601  0.40370535130942775  0.606966094857843  1.0000
  Zn  Zn2       1.0  0.9849321356291039  0.400296873276222  0.614845972473679  1.0000
  C   C41       1.0  0.9025720733212608  0.39687544862635926  0.8480992063073753  1.0000
  C   C42       1.0  0.9026651658177862  0.40712837698833115  0.37371307474902715  1.0000
  C   C43       1.0  0.9026627144119769  0.6391353556460839  0.6057617724891289  1.0000
  C   C44       1.0  0.9025744682460842  0.1648669112188479  0.6160505749153453  1.0000
  O   O3        1.0  0.9651305175565672  0.4075749788131422  0.42508914809071063  1.0000
  O   O4        1.0  0.9650561942987358  0.3938409112815753  0.802703403778428  1.0000
  O   O5        1.0  0.9651285456570543  0.5894688676963848  0.6070141712545496  1.0000
  O   O6        1.0  0.9650581100424448  0.21194703283031058  0.6207782805529416  1.0000
  O   O7        1.0  0.8401772748945214  0.592055192919898  0.601033784082734  1.0000
  O   O8        1.0  0.84010492383745  0.3964287964194053  0.7967229475626947  1.0000
  O   O9        1.0  0.8401792474435719  0.41016281839881685  0.4191071304819265  1.0000
  O   O10       1.0  0.8401068399055146  0.21453486314856574  0.6147963603099589  1.0000
