data_image0
_chemical_formula_structural       NC11NC3H8C7OC3FC3H9C7OC3NC3H11Zn2C4O8
_chemical_formula_sum              "N3 C44 H28 O10 F1 Zn2"
_cell_length_a       17.807433833752565
_cell_length_b       10.29937835083307
_cell_length_c       10.298749378158432
_cell_angle_alpha    85.54775683836141
_cell_angle_beta     88.5335258425568
_cell_angle_gamma    90.70491928007121

_space_group_name_H-M_alt    "P 1"
_space_group_IT_number       1

loop_
  _space_group_symop_operation_xyz
  'x, y, z'

loop_
  _atom_site_type_symbol
  _atom_site_label
  _atom_site_symmetry_multiplicity
  _atom_site_fract_x
  _atom_site_fract_y
  _atom_site_fract_z
  _atom_site_occupancy
  N   N1        1.0  0.7075766798206415  0.43864844152773497  0.5343325579065383  1.0000
  C   C1        1.0  0.6567561288296109  0.4039152713735086  0.6009049683746541  1.0000
  C   C2        1.0  0.5935302375832935  0.3607100709261144  0.6837125516595521  1.0000
  C   C3        1.0  0.6052554727861352  0.2971479967221604  0.8064494490761147  1.0000
  C   C4        1.0  0.5439371130888904  0.255622814170015  0.8869726853340139  1.0000
  C   C5        1.0  0.4707391645801147  0.2773463761595685  0.8453999135469199  1.0000
  C   C6        1.0  0.4580371257259492  0.3410630425452099  0.7222027622653007  1.0000
  C   C7        1.0  0.3802709780592559  0.36411698769235756  0.6778489376040862  1.0000
  C   C8        1.0  0.36147194740200794  0.34725353032036144  0.5482615892718459  1.0000
  C   C9        1.0  0.2882440442588836  0.3689383658426124  0.5066447485021952  1.0000
  C   C10       1.0  0.2328720885704721  0.40780526064954237  0.5937948743505002  1.0000
  C   C11       1.0  0.1575074754091708  0.4301486904554668  0.5508165413666384  1.0000
  N   N2        1.0  0.0969196998130773  0.4481111480905471  0.516265089607205  1.0000
  C   C12       1.0  0.2509795505521206  0.4248793433425879  0.7228510183022325  1.0000
  C   C13       1.0  0.32415470825946524  0.4031595575201812  0.7647233123184056  1.0000
  C   C14       1.0  0.5202127978726594  0.38258365875843214  0.6416959437191754  1.0000
  H   H1        1.0  0.6617207183284712  0.2797303026684608  0.8398200300701166  1.0000
  H   H2        1.0  0.5531336606783537  0.20616140412373296  0.9817231398663666  1.0000
  H   H3        1.0  0.4240985645948932  0.24278417028298205  0.9088487857250058  1.0000
  H   H4        1.0  0.403137387284328  0.31561537480178914  0.47954475461283286  1.0000
  H   H5        1.0  0.2747904554277187  0.3550643855676867  0.40660496166614957  1.0000
  H   H6        1.0  0.2085970255139848  0.45529445728440643  0.7910532289873924  1.0000
  H   H7        1.0  0.3370801690472073  0.4185790269465266  0.8645801011200118  1.0000
  H   H8        1.0  0.5117150325316396  0.43340746280070386  0.5471796193916107  1.0000
  C   C15       1.0  0.9021726015921507  0.06199298130139286  0.5253663285618868  1.0000
  C   C16       1.0  0.823787792544493  0.06009694402533272  0.5129776523479392  1.0000
  C   C17       1.0  0.7841574093383902  0.94185037958834  0.5082110419613866  1.0000
  C   C18       1.0  0.8239714906854292  0.8248574051624069  0.5129760036377635  1.0000
  C   C19       1.0  0.9023309411093053  0.824756812930205  0.5252421772785383  1.0000
  C   C20       1.0  0.9409549539921872  0.9438330334184211  0.5317094000396045  1.0000
  C   C21       1.0  0.7014811681861016  0.9398130435476854  0.49375183832397496  1.0000
  O   O1        1.0  0.6724572883319292  0.8544230458267095  0.42843208313173653  1.0000
  C   C22       1.0  0.6517307891457643  0.03454644777674254  0.5534042544899136  1.0000
  C   C23       1.0  0.5848034922866304  0.07292353883533842  0.49272380796193405  1.0000
  C   C24       1.0  0.5370857383962466  0.16101594385181417  0.5490036049632796  1.0000
  F   F1        1.0  0.47297922835138384  0.19815357349624207  0.4892537089786315  1.0000
  C   C25       1.0  0.5553816707597359  0.21074701034657584  0.6667696383248765  1.0000
  C   C26       1.0  0.6212305469871909  0.1720912548447564  0.7287147942949803  1.0000
  C   C27       1.0  0.6691036784017479  0.0840741987196616  0.6728325332025065  1.0000
  H   H9        1.0  0.050224939659916146  0.2730490872094886  0.5467428906395351  1.0000
  H   H10       1.0  0.7935591510215407  0.1508744635228263  0.5055665400901939  1.0000
  H   H11       1.0  0.7935575146294641  0.7336501568613785  0.5083345494459812  1.0000
  H   H12       1.0  0.0013838166072241975  0.9444907339889024  0.5412594065948053  1.0000
  H   H13       1.0  0.9325036694064384  0.497348152944782  0.528854846856222  1.0000
  H   H14       1.0  0.5698270063050588  0.035565751962089776  0.40125266414147576  1.0000
  H   H15       1.0  0.518422291282422  0.27883309332708706  0.7103672469509978  1.0000
  H   H16       1.0  0.6350456132531251  0.20990795872565937  0.8204534222132884  1.0000
  H   H17       1.0  0.7191756186221373  0.05372460672271595  0.7236655764745505  1.0000
  C   C28       1.0  0.9022171355194977  0.4434020475983744  0.14390479644900367  1.0000
  C   C29       1.0  0.9432775950086413  0.561269522458665  0.1319618003651193  1.0000
  C   C30       1.0  0.9632866232041458  0.6216540710663998  0.008718779252492537  1.0000
  C   C31       1.0  0.9432805908890579  0.5613184586930036  0.8967176244374535  1.0000
  C   C32       1.0  0.9022864001585704  0.4433476963981213  0.9067037005443233  1.0000
  C   C33       1.0  0.8818422743813799  0.3853144987333077  0.030715266580353395  1.0000
  C   C34       1.0  0.0072552514415182845  0.7454956673137452  0.9959794739071026  1.0000
  O   O2        1.0  0.05420123027403445  0.7649802044340808  0.902451216793632  1.0000
  C   C35       1.0  0.9979678113445639  0.8472249199417907  0.08928453255412805  1.0000
  C   C36       1.0  0.927689412389849  0.868091784692951  0.14924662195611527  1.0000
  C   C37       1.0  0.9193061608471178  0.9653940464536013  0.23632099082776525  1.0000
  N   N3        1.0  0.847784959086475  0.9855082997698563  0.29730874877716595  1.0000
  C   C38       1.0  0.9813135668023741  0.043155315301210084  0.26282952619033506  1.0000
  C   C39       1.0  0.05100036276511655  0.02422480293118401  0.20243525735843204  1.0000
  C   C40       1.0  0.05934038494325522  0.9272331737536554  0.11573965145681675  1.0000
  H   H18       1.0  0.8256285187504239  0.21970101566638411  0.3738655581750594  1.0000
  H   H19       1.0  0.9604436613476903  0.6055343296612372  0.21870464282226787  1.0000
  H   H20       1.0  0.959133896425226  0.6072275829993972  0.8015686656995813  1.0000
  H   H21       1.0  0.8501956456546257  0.2944576385737445  0.03916920570024529  1.0000
  H   H22       1.0  0.8250999128507939  0.2202111458440914  0.7182755038874018  1.0000
  H   H23       1.0  0.8792042857051325  0.8099038365943274  0.1274623136343287  1.0000
  H   H24       1.0  0.8011882623293695  0.9281014553309241  0.278251688377535  1.0000
  H   H25       1.0  0.840916669063564  0.05786271414137589  0.3621040903801189  1.0000
  H   H26       1.0  0.9755565605316113  0.11863282370248429  0.32981816643024753  1.0000
  H   H27       1.0  0.09868342617649617  0.08485317395018788  0.2228497648347776  1.0000
  H   H28       1.0  0.11391477285256224  0.9139142725731653  0.07020889994105883  1.0000
  Zn  Zn1       1.0  0.8199326648756051  0.44137569890032524  0.5291261625179315  1.0000
  Zn  Zn2       1.0  0.9845636987543619  0.4453732698714059  0.5214820735857224  1.0000
  C   C41       1.0  0.9022705737457304  0.43818402622975716  0.762519295795449  1.0000
  C   C42       1.0  0.9022275880017887  0.4485666248830811  0.28808898404491323  1.0000
  C   C43       1.0  0.9022966861477841  0.6805784657169183  0.5200902325682952  1.0000
  C   C44       1.0  0.9022014191050173  0.20617062365075745  0.5305181193786226  1.0000
  O   O3        1.0  0.9647077141491803  0.4518112955403053  0.33357762355092757  1.0000
  O   O4        1.0  0.9647415927721292  0.437972439700024  0.7112285959455757  1.0000
  O   O5        1.0  0.9647618367749775  0.6337089945351457  0.5154654510499699  1.0000
  O   O6        1.0  0.9646874139619955  0.2560747486386794  0.5293406736709652  1.0000
  O   O7        1.0  0.839808893487479  0.6306742187702912  0.5212675650344092  1.0000
  O   O8        1.0  0.8397886497988561  0.43493922431757204  0.7170306404251798  1.0000
  O   O9        1.0  0.839754771074642  0.44877803501218105  0.3393781065098618  1.0000
  O   O10       1.0  0.8397344708913015  0.25304147881429895  0.5351412540071887  1.0000
