data_image0
_chemical_formula_structural       NC12NC2H8C7OC3NC3H11C7OC6OCH12Zn2C4O8
_chemical_formula_sum              "N3 C45 H31 O11 Zn2"
_cell_length_a       19.240039667572717
_cell_length_b       10.298746005989749
_cell_length_c       10.299362532796529
_cell_angle_alpha    85.58216748152913
_cell_angle_beta     90.01509071760941
_cell_angle_gamma    90.00762981599719

_space_group_name_H-M_alt    "P 1"
_space_group_IT_number       1

loop_
  _space_group_symop_operation_xyz
  'x, y, z'

loop_
  _atom_site_type_symbol
  _atom_site_label
  _atom_site_symmetry_multiplicity
  _atom_site_fract_x
  _atom_site_fract_y
  _atom_site_fract_z
  _atom_site_occupancy
  N   N1        1.0  0.6543764503255892  0.4209570152747273  0.5675985871478979  1.0000
  C   C1        1.0  0.5942280815027419  0.42095709923808444  0.567598505219689  1.0000
  C   C2        1.0  0.519410044350579  0.42095721649177475  0.5675983679273378  1.0000
  C   C3        1.0  0.4829463169505355  0.35651806141962816  0.671003396601201  1.0000
  C   C4        1.0  0.4102755731481383  0.356407197118902  0.6710899273559312  1.0000
  C   C5        1.0  0.3730778093877408  0.4209573089951335  0.5675981402561336  1.0000
  C   C6        1.0  0.4102557240553232  0.4855076079334557  0.4641065477143962  1.0000
  C   C7        1.0  0.48292641681713194  0.4853965081504985  0.464193200945598  1.0000
  C   C8        1.0  0.2958727189290496  0.4209572302979463  0.5675980448333049  1.0000
  C   C9        1.0  0.2586827387288924  0.3076995056111551  0.6094571037850458  1.0000
  C   C10       1.0  0.1860120450884636  0.3078063870826613  0.609365789671261  1.0000
  C   C11       1.0  0.1495404320052317  0.420957101132585  0.5675981057301986  1.0000
  C   C12       1.0  0.0747223948772346  0.4209569874560444  0.5675983543780425  1.0000
  N   N2        1.0  0.0145740780516153  0.4209569466927747  0.567598562792029  1.0000
  C   C13       1.0  0.18601632977656068  0.5341078910004704  0.5258303689063457  1.0000
  C   C14       1.0  0.2586870207280612  0.5342149525586795  0.5257388922171289  1.0000
  H   H1        1.0  0.5106690101698194  0.3066280732264657  0.7517391480261963  1.0000
  H   H2        1.0  0.38319030785167635  0.307315704025513  0.7529412595094416  1.0000
  H   H3        1.0  0.3831544585584151  0.5345991280660465  0.3822551647154906  1.0000
  H   H4        1.0  0.5106334950926732  0.5352863961568968  0.38345772530426103  1.0000
  H   H5        1.0  0.2857740517032389  0.21854596906781887  0.6406155282387214  1.0000
  H   H6        1.0  0.1582954506834536  0.2195524240713529  0.6415572655011923  1.0000
  H   H7        1.0  0.1583031007340832  0.6223618294772582  0.493638907624284  1.0000
  H   H8        1.0  0.2857821865702564  0.6233685682717609  0.494580423000182  1.0000
  C   C15       1.0  0.8344453863635233  0.03955490515896187  0.5675813885590877  1.0000
  C   C16       1.0  0.8669408997964944  0.048024237359362676  0.4450787629430808  1.0000
  C   C17       1.0  0.8826412500698945  0.9351831632034691  0.3824465190336501  1.0000
  C   C18       1.0  0.8669414139128162  0.812787622119804  0.4450296265038063  1.0000
  C   C19       1.0  0.8345118064103878  0.8023491111507078  0.5676269425454838  1.0000
  C   C20       1.0  0.8183022483202748  0.9162982008147224  0.6279704353123083  1.0000
  C   C21       1.0  0.9175470375554147  0.9439353621672547  0.25363271506853824  1.0000
  O   O1        1.0  0.9599796717300464  0.8559497985478961  0.22842079162929418  1.0000
  C   C22       1.0  0.9043171533039536  0.05244286389038755  0.15342836606864974  1.0000
  C   C23       1.0  0.8385037975043168  0.11183131855358042  0.14132109150033  1.0000
  C   C24       1.0  0.8263111388743478  0.21347348516715559  0.04541558300506909  1.0000
  N   N3        1.0  0.759385327805158  0.2737044065512295  0.034211672655023895  1.0000
  C   C25       1.0  0.8799746359685507  0.2553343635596126  0.9602825592148152  1.0000
  C   C26       1.0  0.9451533105557307  0.19578058596537917  0.9705337876194218  1.0000
  C   C27       1.0  0.9572918645153946  0.09456280186103982  0.06613509234049486  1.0000
  H   H9        1.0  0.7740088203725709  0.23084747252520432  0.7999138284262  1.0000
  H   H10       1.0  0.8807557889967955  0.14252711582527477  0.39885759462302506  1.0000
  H   H11       1.0  0.8794695094198131  0.7255816792861417  0.39733239641642215  1.0000
  H   H12       1.0  0.7932575007786488  0.9090177986911887  0.7223996704671218  1.0000
  H   H13       1.0  0.7734975878091732  0.5753075548344767  0.7994708634685497  1.0000
  H   H14       1.0  0.7964232152577955  0.0784464884274314  0.20528283842903794  1.0000
  H   H15       1.0  0.7190117877225307  0.24326931721420753  0.09716197158025164  1.0000
  H   H16       1.0  0.7497332840842693  0.34929831554783974  0.9629742638953043  1.0000
  H   H17       1.0  0.8712050936101552  0.3336634866414949  0.8857964519785777  1.0000
  H   H18       1.0  0.9863819856275484  0.22812910698328315  0.9042397631555525  1.0000
  H   H19       1.0  0.00826682368492948  0.0499228292199656  0.07266254749249956  1.0000
  C   C28       1.0  0.8344243494912841  0.42083145379569364  0.186237285993474  1.0000
  C   C29       1.0  0.7684441616679604  0.3621459030240337  0.1895214474187623  1.0000
  C   C30       1.0  0.734866108110146  0.3338700022012837  0.07400645222155067  1.0000
  C   C31       1.0  0.7686399020661879  0.36230947459689955  0.9542671572991135  1.0000
  C   C32       1.0  0.8345328635355662  0.4210725284167707  0.9489710754601322  1.0000
  C   C33       1.0  0.8669878238143145  0.4502501038122739  0.06549497091270373  1.0000
  C   C34       1.0  0.6655460110949751  0.2705670090879768  0.07980549357094624  1.0000
  O   O2        1.0  0.6513391974279568  0.19135374645718217  0.17569732645623048  1.0000
  C   C35       1.0  0.6123455794900797  0.2971204726635315  0.9768922787382617  1.0000
  C   C36       1.0  0.6070115804329572  0.42050341421337745  0.90904625232388  1.0000
  C   C37       1.0  0.5561412290132557  0.44468506230500515  0.8133521181343935  1.0000
  C   C38       1.0  0.5093801830414781  0.34701254780802704  0.7842974812080605  1.0000
  C   C39       1.0  0.5139832742117844  0.22382317715063893  0.8530617353322607  1.0000
  C   C40       1.0  0.5648473861463372  0.19951431923512541  0.9488282669325612  1.0000
  O   O3        1.0  0.4593498626030387  0.3761745958970464  0.6873146827353431  1.0000
  C   C41       1.0  0.4086667532564972  0.2864057960392752  0.6479367097335134  1.0000
  H   H20       1.0  0.9590475225054114  0.5310795989591579  0.3873481613999421  1.0000
  H   H21       1.0  0.7427086138123821  0.33940305447230856  0.28205417364547003  1.0000
  H   H22       1.0  0.7437922114891566  0.3372272949017727  0.8652115900490678  1.0000
  H   H23       1.0  0.9178196191919229  0.4955773391716738  0.062142212700764254  1.0000
  H   H24       1.0  0.859927354074426  0.4431324045253999  0.6195031921297169  1.0000
  H   H25       1.0  0.6416611153974615  0.498760717016717  0.9308751280455674  1.0000
  H   H26       1.0  0.5528380131358862  0.5401524830380329  0.7617941864221236  1.0000
  H   H27       1.0  0.4785354380070485  0.14625172059824276  0.8333296764512408  1.0000
  H   H28       1.0  0.5674753155482315  0.10386501494369171  0.00027299573243411146  1.0000
  H   H29       1.0  0.3760248310888354  0.33510497260330907  0.5698562267645313  1.0000
  H   H30       1.0  0.3747253102211116  0.2541900808480435  0.7314844635523037  1.0000
  H   H31       1.0  0.43456803455345183  0.20107865946770498  0.6092757802461168  1.0000
  Zn  Zn1       1.0  0.7583217149251045  0.42095353034669203  0.5676060682981983  1.0000
  Zn  Zn2       1.0  0.9106288328082871  0.4209498405693741  0.5676016798522938  1.0000
  C   C42       1.0  0.8345103414647719  0.4158528425019421  0.8047977346496111  1.0000
  C   C43       1.0  0.8344418696184596  0.4260521671762243  0.3304101410166296  1.0000
  C   C44       1.0  0.8344949459295636  0.6581631165864037  0.562443199174101  1.0000
  C   C45       1.0  0.8344572130558486  0.18374033267661938  0.5727647456386813  1.0000
  O   O4        1.0  0.892247506521181  0.4277972197930755  0.3787942024668536  1.0000
  O   O5        1.0  0.8923022827500597  0.41410400950360193  0.7564099685679084  1.0000
  O   O6        1.0  0.8922890716843973  0.6097726207041765  0.5607069665760129  1.0000
  O   O7        1.0  0.8922606656016981  0.23212861785401206  0.5744971070866518  1.0000
  O   O8        1.0  0.776689830156748  0.6097747530647251  0.5607106410585072  1.0000
  O   O9        1.0  0.7767030413452841  0.41410770228196436  0.7564135738985285  1.0000
  O   O10       1.0  0.7766482649365717  0.4278008668180038  0.37879624640238596  1.0000
  O   O11       1.0  0.7766614240272887  0.2321322556201002  0.5744992483889484  1.0000
