data_image0
_chemical_formula_structural       NC8NC6H8C6SCOC6H10C7OC6OCH12Zn2C4O8
_chemical_formula_sum              "N2 C45 H30 S1 O11 Zn2"
_cell_length_a       17.457602349358154
_cell_length_b       10.302038109246572
_cell_length_c       10.299362532796529
_cell_angle_alpha    85.5856087193975
_cell_angle_beta     92.89066602148195
_cell_angle_gamma    91.70619204985762

_space_group_name_H-M_alt    "P 1"
_space_group_IT_number       1

loop_
  _space_group_symop_operation_xyz
  'x, y, z'

loop_
  _atom_site_type_symbol
  _atom_site_label
  _atom_site_symmetry_multiplicity
  _atom_site_fract_x
  _atom_site_fract_y
  _atom_site_fract_z
  _atom_site_occupancy
  N   N1        1.0  0.7224860519027718  0.4520506921669758  0.6266910786253539  1.0000
  C   C1        1.0  0.6613977006869507  0.4061328587148407  0.6160690370134045  1.0000
  C   C2        1.0  0.585401211329085  0.34901678999836183  0.6028647600644914  1.0000
  C   C3        1.0  0.5268920004718134  0.3891932304159167  0.6777685248761136  1.0000
  C   C4        1.0  0.4523340939995819  0.334195123906015  0.6651789784357618  1.0000
  C   C5        1.0  0.3902351088290107  0.37661560429715646  0.7445048888683692  1.0000
  C   C6        1.0  0.3156832044433104  0.39506178536762926  0.6887434057815092  1.0000
  C   C7        1.0  0.2571739726557923  0.4350543781353089  0.7637551002625813  1.0000
  C   C8        1.0  0.1811836803715726  0.4541055594811305  0.7057782193892648  1.0000
  N   N2        1.0  0.12010040069049249  0.46941633113306835  0.6591649573512481  1.0000
  C   C9        1.0  0.2727246087602425  0.4568440372739473  0.8950368327470091  1.0000
  C   C10       1.0  0.3464919441397744  0.4387868758149611  0.9511859700058674  1.0000
  C   C11       1.0  0.40498967721711576  0.3989744418559307  0.8766320251648503  1.0000
  C   C12       1.0  0.4375736900511911  0.23834285714879955  0.5762526433820969  1.0000
  C   C13       1.0  0.4960712986968331  0.1984451595389285  0.5017489230949497  1.0000
  C   C14       1.0  0.5698445473119179  0.25355579161548714  0.5148884392766375  1.0000
  H   H1        1.0  0.5392608349433254  0.4643912704481905  0.7444100013516046  1.0000
  H   H2        1.0  0.303319324317782  0.38006230954890996  0.5867160228419401  1.0000
  H   H3        1.0  0.2278787636178611  0.48773842065882556  0.9538773594333525  1.0000
  H   H4        1.0  0.3583423514056827  0.45534352653501053  0.05284030041068555  1.0000
  H   H5        1.0  0.46147967765051856  0.3840009373324922  0.9227368396530118  1.0000
  H   H6        1.0  0.381078723542957  0.19301454176927613  0.5655945645193066  1.0000
  H   H7        1.0  0.4842162985139472  0.12436293460239756  0.43390926650877604  1.0000
  H   H8        1.0  0.6146903509402969  0.2217920784354801  0.4565589240062369  1.0000
  C   C15       1.0  0.9212242212043124  0.07945203218451247  0.6428822239039036  1.0000
  C   C16       1.0  0.8556236394779485  0.08133175029823003  0.558005724576436  1.0000
  C   C17       1.0  0.8233443241711152  0.9653241169705448  0.5153202563053028  1.0000
  C   C18       1.0  0.8558704015321807  0.8462099123406222  0.5579718724601905  1.0000
  C   C19       1.0  0.9213695894322834  0.842005307131463  0.6429856698640424  1.0000
  C   C20       1.0  0.9537481857990795  0.9592663615143743  0.6849183637349563  1.0000
  S   S1        1.0  0.7400755832076182  0.9691903702119716  0.4059114819097833  1.0000
  C   C21       1.0  0.7964585696092333  0.9801017223990174  0.26409586066707  1.0000
  O   O1        1.0  0.8149504722565718  0.8756271678019852  0.21925654046959608  1.0000
  C   C22       1.0  0.8217512058424712  0.10735213339467609  0.20066465139240997  1.0000
  C   C23       1.0  0.8759790181870855  0.11202813653279131  0.10358800783192823  1.0000
  C   C24       1.0  0.9006270392610028  0.23142156727039165  0.043878573022809064  1.0000
  C   C25       1.0  0.8714620768403706  0.347396711676873  0.079997504755978  1.0000
  C   C26       1.0  0.8174647852998947  0.34420293797415447  0.17573994471922894  1.0000
  C   C27       1.0  0.7925610874985237  0.2251020781250399  0.2357486673598026  1.0000
  H   H9        1.0  0.044784806700647106  0.28320918419011987  0.8030259822613925  1.0000
  H   H10       1.0  0.8295163728010414  0.17270385769150431  0.5245980088959059  1.0000
  H   H11       1.0  0.8300102274234472  0.7573191256982813  0.5240958110614267  1.0000
  H   H12       1.0  0.004321942530358891  0.9568969304018408  0.7503491656867733  1.0000
  H   H13       1.0  0.9464061160359891  0.5130979334068421  0.6749967287973213  1.0000
  H   H14       1.0  0.8997072638480718  0.023490224798310866  0.07422867137811062  1.0000
  H   H15       1.0  0.9424660527432862  0.2339781971013395  0.9695988072550414  1.0000
  H   H16       1.0  0.8906316628461953  0.4397234896611224  0.03368930712363927  1.0000
  H   H17       1.0  0.7947417715593255  0.43416709355719796  0.20342074372409158  1.0000
  H   H18       1.0  0.7502724671001926  0.22591316867754174  0.30885938617712805  1.0000
  C   C28       1.0  0.9212369933331754  0.4606055423534321  0.26156214618235696  1.0000
  C   C29       1.0  0.8483973612811807  0.39875777241965227  0.25889381575269743  1.0000
  C   C30       1.0  0.8113286101292558  0.36887207418092394  0.14034963913968057  1.0000
  C   C31       1.0  0.8486134502842101  0.39893072857257494  0.02365718390196392  1.0000
  C   C32       1.0  0.9213568023810843  0.46085177144080847  0.02430573521812751  1.0000
  C   C33       1.0  0.9571858804527269  0.49158470971626356  0.14375761992194835  1.0000
  C   C34       1.0  0.7348016891771907  0.30224731779070835  0.13989476225222486  1.0000
  O   O2        1.0  0.7191116189870126  0.22237447549612077  0.23450038192579226  1.0000
  C   C35       1.0  0.676077398547293  0.3262274128601277  0.03218702081895519  1.0000
  C   C36       1.0  0.6702009611187449  0.44931370690644123  0.9638684913165227  1.0000
  C   C37       1.0  0.6140485713307238  0.47103508213066503  0.8635897397118364  1.0000
  C   C38       1.0  0.562420850701607  0.3711394087345654  0.8303126790606461  1.0000
  C   C39       1.0  0.567490473111778  0.24821138549614585  0.8994835537874071  1.0000
  C   C40       1.0  0.6236359632588826  0.22636254034576786  0.999834131628139  1.0000
  O   O3        1.0  0.5071962229853548  0.39788008913961126  0.7288213355043403  1.0000
  C   C41       1.0  0.4512397681919877  0.3056965124791955  0.6848678790341562  1.0000
  H   H19       1.0  0.05881620686263811  0.5768266682550425  0.47391602905921393  1.0000
  H   H20       1.0  0.8199863036593613  0.3747814542700778  0.3491047847561901  1.0000
  H   H21       1.0  0.8211822581252128  0.3726586328548951  0.9323597459436064  1.0000
  H   H22       1.0  0.013302271026725432  0.5393481133853693  0.14499072869749297  1.0000
  H   H23       1.0  0.9493913097856426  0.4841288928566583  0.697128814355024  1.0000
  H   H24       1.0  0.7084572157277996  0.5292164686913003  0.9888265468380966  1.0000
  H   H25       1.0  0.610411235856161  0.5663126964954461  0.8117404940985984  1.0000
  H   H26       1.0  0.5283530559028494  0.1689557631974754  0.8765503901815559  1.0000
  H   H27       1.0  0.6265278475346141  0.13087054408821497  0.0515092809152955  1.0000
  H   H28       1.0  0.4152116588908356  0.3528063886798578  0.6038478456234633  1.0000
  H   H29       1.0  0.4137695073759977  0.27185474123933795  0.765353421886132  1.0000
  H   H30       1.0  0.4798235730413853  0.22164542261668596  0.6485363013758905  1.0000
  Zn  Zn1       1.0  0.8372289645666029  0.45705856096963204  0.6360698366040234  1.0000
  Zn  Zn2       1.0  0.0053574734177115335  0.46439782038034383  0.6497968305363739  1.0000
  C   C42       1.0  0.9213314479952615  0.4556326702193063  0.8801300090452215  1.0000
  C   C43       1.0  0.9212568262794097  0.4658254295608175  0.40573693568310976  1.0000
  C   C44       1.0  0.9213373284125957  0.697864652762846  0.6377905592616808  1.0000
  C   C45       1.0  0.9212508882051176  0.2235918845898195  0.6480764498101805  1.0000
  O   O4        1.0  0.9850673742176125  0.4703568176448085  0.45933263398282165  1.0000
  O   O5        1.0  0.9851265478007585  0.4566706305902011  0.836952407537457  1.0000
  O   O6        1.0  0.9851304364172231  0.6522759828256262  0.6412615172033482  1.0000
  O   O7        1.0  0.9850634282167531  0.27475147216165086  0.6550234222586961  1.0000
  O   O8        1.0  0.8575229523935519  0.6467049066852077  0.6308432401905206  1.0000
  O   O9        1.0  0.8575190640600358  0.45110111437412215  0.8265340614899197  1.0000
  O   O10       1.0  0.8574598902740561  0.46478725568126866  0.44891272652087255  1.0000
  O   O11       1.0  0.8574559442835819  0.26918190094272565  0.6446036121638019  1.0000
