data_image0
_chemical_formula_structural       NC8NC6H8C6NCOC6H11C6SCOC6H10Zn2C4O8
_chemical_formula_sum              "N3 C44 H29 O10 S1 Zn2"
_cell_length_a       17.457602349358154
_cell_length_b       10.29965916528486
_cell_length_c       10.302041481415108
_cell_angle_alpha    85.55947833871805
_cell_angle_beta     92.8727530123399
_cell_angle_gamma    91.70433465767697

_space_group_name_H-M_alt    "P 1"
_space_group_IT_number       1

loop_
  _space_group_symop_operation_xyz
  'x, y, z'

loop_
  _atom_site_type_symbol
  _atom_site_label
  _atom_site_symmetry_multiplicity
  _atom_site_fract_x
  _atom_site_fract_y
  _atom_site_fract_z
  _atom_site_occupancy
  N   N1        1.0  0.722733882909775  0.4532741689023254  0.6272859185916992  1.0000
  C   C1        1.0  0.6616482253839633  0.40735350817658555  0.6166572545048541  1.0000
  C   C2        1.0  0.5856550850395005  0.3502339172293212  0.6034447381678796  1.0000
  C   C3        1.0  0.5271307342200939  0.39036929883755533  0.6783395026724637  1.0000
  C   C4        1.0  0.4525760282015824  0.3353677177071168  0.6657419941667966  1.0000
  C   C5        1.0  0.3904610109787045  0.37774468776870496  0.7450583478200479  1.0000
  C   C6        1.0  0.3159197201339736  0.39623183397299044  0.6893130613030449  1.0000
  C   C7        1.0  0.2573953298548565  0.43618325678112346  0.7643156950339995  1.0000
  C   C8        1.0  0.1814160745244829  0.45527700330267673  0.706355629107513  1.0000
  N   N2        1.0  0.12034166861173032  0.4706219958845732  0.6597558850002916  1.0000
  C   C9        1.0  0.2729200915361817  0.4578904957095844  0.8955721032923869  1.0000
  C   C10       1.0  0.3466767325584164  0.43979219556809146  0.951705032965765  1.0000
  C   C11       1.0  0.4051895324929781  0.4000206665936097  0.8771600810353317  1.0000
  C   C12       1.0  0.4378342530839147  0.239553840209201  0.576816887399509  1.0000
  C   C13       1.0  0.4963469199602519  0.19969699592280077  0.5023221319527984  1.0000
  C   C14       1.0  0.5701168594388765  0.25481076191108776  0.5154695082827072  1.0000
  H   H1        1.0  0.5394855624722862  0.46553929387108406  0.7449807197619032  1.0000
  H   H2        1.0  0.3035759223709259  0.38129682820672484  0.5873057393722396  1.0000
  H   H3        1.0  0.2280623622767669  0.48875248215342126  0.954405428978597  1.0000
  H   H4        1.0  0.3585071089792313  0.45628495864376206  0.05333969229351798  1.0000
  H   H5        1.0  0.4616707536369319  0.3850133510309788  0.9232515584804788  1.0000
  H   H6        1.0  0.3813419792738578  0.19422284824849734  0.5661523099621659  1.0000
  H   H7        1.0  0.48450614427686434  0.1256438509519775  0.43448322406933526  1.0000
  H   H8        1.0  0.6149744594380472  0.22307891965507154  0.4571469080559498  1.0000
  C   C15       1.0  0.9214739622346985  0.08058463509965397  0.6434002390420483  1.0000
  C   C16       1.0  0.9220006925438791  0.0899358437596951  0.5066586531547306  1.0000
  C   C17       1.0  0.9233973629900748  0.9778600088262885  0.4379529089649079  1.0000
  C   C18       1.0  0.9221452336922069  0.8547517549200202  0.5069667731590499  1.0000
  C   C19       1.0  0.9216089065381258  0.8433017878880675  0.6436533641745867  1.0000
  C   C20       1.0  0.9215462680420174  0.9568382661744417  0.7111206298716855  1.0000
  N   N3        1.0  0.9227572650526963  0.9909532828537116  0.29786664355582304  1.0000
  C   C21       1.0  0.9587232637084033  0.9014211857169481  0.2210959290072656  1.0000
  O   O1        1.0  0.01164741624706811  0.8308953961076836  0.27238515140032526  1.0000
  C   C22       1.0  0.9364284904853735  0.8942996953221899  0.08094079097698992  1.0000
  C   C23       1.0  0.8654877550225127  0.9410778497083168  0.028812406710883698  1.0000
  C   C24       1.0  0.8449343641335111  0.933212883071196  0.89664128373744  1.0000
  C   C25       1.0  0.8946071223935056  0.8783227138177032  0.8152607298964543  1.0000
  C   C26       1.0  0.9648725372727329  0.8307280499106524  0.8659580620831813  1.0000
  C   C27       1.0  0.9857188206236889  0.8382494991957248  0.9980486530397652  1.0000
  H   H9        1.0  0.9197481025728492  0.27017715857905134  0.9012789031434005  1.0000
  H   H10       1.0  0.9219145029876717  0.1845600094483404  0.45284099496908503  1.0000
  H   H11       1.0  0.9202419757251935  0.7678963867188415  0.45401815385782296  1.0000
  H   H12       1.0  0.9211504771443509  0.9487645991514537  0.816533799547912  1.0000
  H   H13       1.0  0.9203824732562783  0.5114159655533258  0.6960026323584223  1.0000
  H   H14       1.0  0.9008684359760195  0.0761471035559631  0.2501492716120659  1.0000
  H   H15       1.0  0.8252817963378731  0.9819981417043796  0.08999657098707314  1.0000
  H   H16       1.0  0.7902588529708537  0.9692727284897144  0.8573985634826169  1.0000
  H   H17       1.0  0.8785443066698893  0.87229954031702  0.7130147272119141  1.0000
  H   H18       1.0  0.0032633120453997577  0.7879333972554573  0.8028623505778638  1.0000
  H   H19       1.0  0.040586539480242934  0.8010126883719173  0.035088872126699755  1.0000
  C   C28       1.0  0.9215558478591227  0.4620731243136722  0.2622410011677594  1.0000
  C   C29       1.0  0.9567499814546595  0.5867042149878026  0.25424117500950594  1.0000
  C   C30       1.0  0.9746026626977834  0.6482078304242902  0.13333305031261133  1.0000
  C   C31       1.0  0.9568227241278021  0.5863035356201727  0.019141575279250977  1.0000
  C   C32       1.0  0.9215270564150074  0.4618133152980488  0.024812658792320308  1.0000
  C   C33       1.0  0.9041329248454264  0.40029115202542886  0.1469516444657828  1.0000
  S   S1        1.0  0.02024712374803883  0.8067285822379755  0.12458768614210047  1.0000
  C   C34       1.0  0.1147437745234583  0.741052427548959  0.13485084897144373  1.0000
  O   O2        1.0  0.14476470105366435  0.7191900354575615  0.030234835404836957  1.0000
  C   C35       1.0  0.15702605657239377  0.711555264538519  0.26181831887027873  1.0000
  C   C36       1.0  0.2250728688423409  0.6408025174086027  0.2675441157181495  1.0000
  C   C37       1.0  0.2650546991386078  0.6116509105088839  0.38675143024911085  1.0000
  C   C38       1.0  0.23780401934763873  0.6528084928633469  0.5014770646031601  1.0000
  C   C39       1.0  0.17058176291821336  0.7234384085814647  0.4971988200931561  1.0000
  C   C40       1.0  0.13037100049874972  0.7529541530626884  0.37827233496167145  1.0000
  H   H20       1.0  0.8551061065740603  0.22727340793277362  0.4846182859212502  1.0000
  H   H21       1.0  0.9705409151030876  0.6362325610126458  0.341697254469169  1.0000
  H   H22       1.0  0.9709387868416052  0.6355145445727581  0.926338400462658  1.0000
  H   H23       1.0  0.8770025373904152  0.30420932268441647  0.15219853087432123  1.0000
  H   H24       1.0  0.9083171062731267  0.4143214121581933  0.6996597317888251  1.0000
  H   H25       1.0  0.24722830313651967  0.6073120665607783  0.1800238108551242  1.0000
  H   H26       1.0  0.317196196525928  0.5569427098975281  0.39014437104815824  1.0000
  H   H27       1.0  0.2688238266821694  0.6301112821023835  0.5936646785626536  1.0000
  H   H28       1.0  0.14961740213215946  0.7555938207743824  0.5861699896985118  1.0000
  H   H29       1.0  0.07881189075125894  0.8086297985423063  0.3781545114342759  1.0000
  Zn  Zn1       1.0  0.8374749001952392  0.458276891827901  0.6366635451860005  1.0000
  Zn  Zn2       1.0  0.005600634790648984  0.4656086216664299  0.6503888850825572  1.0000
  C   C41       1.0  0.9215298516041416  0.4566887589134607  0.8806684031154988  1.0000
  C   C42       1.0  0.9215475195946611  0.46719847319640184  0.40638430501587686  1.0000
  C   C43       1.0  0.9215796555801996  0.6991336295535793  0.6384311711848214  1.0000
  C   C44       1.0  0.9214976579703463  0.22475203975011793  0.6486216009687333  1.0000
  O   O3        1.0  0.985347563634864  0.47169527470393424  0.4599688076327215  1.0000
  O   O4        1.0  0.9853333497979353  0.45775559112721265  0.8375007418076517  1.0000
  O   O5        1.0  0.9853727069946424  0.6535328523355826  0.6418923933864913  1.0000
  O   O6        1.0  0.9853081490735551  0.27591802031700063  0.6555770540199872  1.0000
  O   O7        1.0  0.8577673285392715  0.6479674906767876  0.631475371557956  1.0000
  O   O8        1.0  0.8577279716177597  0.4521917897740393  0.8270836512663238  1.0000
  O   O9        1.0  0.8577421855566941  0.46613142862947  0.4495501560200901  1.0000
  O   O10       1.0  0.8577027709869257  0.27035416492055675  0.6451584997506368  1.0000
