data_image0
_chemical_formula_structural       NC10NC3NH7C7OC4NC3H9C7OC6H10Zn2C4O8
_chemical_formula_sum              "N4 C44 H26 O10 Zn2"
_cell_length_a       19.210446455230148
_cell_length_b       10.299371701877257
_cell_length_c       10.299382801718286
_cell_angle_alpha    85.59153606020502
_cell_angle_beta     89.97114799571779
_cell_angle_gamma    89.95709994445667

_space_group_name_H-M_alt    "P 1"
_space_group_IT_number       1

loop_
  _space_group_symop_operation_xyz
  'x, y, z'

loop_
  _atom_site_type_symbol
  _atom_site_label
  _atom_site_symmetry_multiplicity
  _atom_site_fract_x
  _atom_site_fract_y
  _atom_site_fract_z
  _atom_site_occupancy
  N   N1        1.0  0.6558612175566704  0.4199279598302592  0.5678828522487602  1.0000
  C   C1        1.0  0.5956326575408204  0.42213548687824165  0.5681148722735456  1.0000
  C   C2        1.0  0.5208282047762061  0.42487241614014093  0.5684023169546868  1.0000
  C   C3        1.0  0.4852162165238335  0.541104023197643  0.5835599969225496  1.0000
  C   C4        1.0  0.4125507470349659  0.5412555497204401  0.5835074595558021  1.0000
  C   C5        1.0  0.3756614441725483  0.4255813887383755  0.5684890800689633  1.0000
  C   C6        1.0  0.29833932568704  0.4242249044056392  0.5683379523933352  1.0000
  C   C7        1.0  0.2605963930838612  0.5277836141879075  0.5050172573669534  1.0000
  C   C8        1.0  0.1878180413227849  0.5263813822086425  0.5049076292570631  1.0000
  C   C9        1.0  0.1517812219347899  0.42167793854550184  0.568067801244232  1.0000
  C   C10       1.0  0.0768517110261656  0.42037584988012  0.5679304583175924  1.0000
  N   N2        1.0  0.0166138660555988  0.4193289263907507  0.5678200694629092  1.0000
  C   C11       1.0  0.1888005023309472  0.3182449155619551  0.6313635375388673  1.0000
  C   C12       1.0  0.2615806921944929  0.3193728912691385  0.6315233029958753  1.0000
  C   C13       1.0  0.413883266022132  0.3111700632994481  0.5536202832224277  1.0000
  N   N3        1.0  0.4846532104185386  0.3136150355575733  0.5537868116777482  1.0000
  H   H1        1.0  0.5133161045584973  0.6305385302661577  0.5956437303755255  1.0000
  H   H2        1.0  0.3852806000772199  0.6312721456432961  0.5969861425403009  1.0000
  H   H3        1.0  0.2873324289469104  0.6090275249342403  0.4540588716330869  1.0000
  H   H4        1.0  0.1596801666874962  0.6067978183300307  0.4552793063185825  1.0000
  H   H5        1.0  0.1614250522601869  0.2368650780059982  0.6808919954353536  1.0000
  H   H6        1.0  0.2890734678626452  0.23907587736990843  0.6825893953954807  1.0000
  H   H7        1.0  0.3876192186118961  0.22029054956448468  0.5400950123802173  1.0000
  C   C14       1.0  0.8362044801251654  0.03825805687124406  0.5677244755431625  1.0000
  C   C15       1.0  0.8396115904819506  0.04756813982504604  0.4310615613678226  1.0000
  C   C16       1.0  0.8405396494076185  0.9350962762045584  0.36207031594600436  1.0000
  C   C17       1.0  0.8396201433084813  0.8122998682834336  0.43137894977875946  1.0000
  C   C18       1.0  0.8362772517200218  0.8009888428264686  0.5679896699393474  1.0000
  C   C19       1.0  0.8344056207806103  0.9145696637341446  0.635356205883223  1.0000
  C   C20       1.0  0.8448683682242316  0.9447821207847851  0.21782229051848345  1.0000
  O   O1        1.0  0.8783812694537041  0.85896954199681  0.16287162414094092  1.0000
  C   C21       1.0  0.8111670697752936  0.05173628192131807  0.13591751254901996  1.0000
  C   C22       1.0  0.8410016125391642  0.09630895458868682  0.01594430732918295  1.0000
  C   C23       1.0  0.809135613173223  0.19625058278109653  0.9371605549103932  1.0000
  C   C24       1.0  0.8403209829822361  0.24200466131621323  0.8150010066168631  1.0000
  N   N4        1.0  0.8653926295517085  0.27878131657499483  0.7168024440327212  1.0000
  C   C25       1.0  0.7469155594657301  0.2515397167574298  0.9773424680239238  1.0000
  C   C26       1.0  0.716493716202066  0.20675707226697648  0.09557625836188399  1.0000
  C   C27       1.0  0.7481598540835749  0.10711324826779745  0.17434864816488815  1.0000
  H   H8        1.0  0.8308453100282109  0.22800206696897463  0.8257085602446803  1.0000
  H   H9        1.0  0.8423271970020298  0.14247763034040717  0.3781754597221081  1.0000
  H   H10       1.0  0.840851494838328  0.7254505436985818  0.37836747248902247  1.0000
  H   H11       1.0  0.8317793684563309  0.9065883778149585  0.7407135716967379  1.0000
  H   H12       1.0  0.8355789433446927  0.46918228438376824  0.6205140732392083  1.0000
  H   H13       1.0  0.8892810814092629  0.05413183088201534  0.9843596093014009  1.0000
  H   H14       1.0  0.7218327690803589  0.3287865087307562  0.9171084776553955  1.0000
  H   H15       1.0  0.6680955991287226  0.24895036608228094  0.12600799255874162  1.0000
  H   H16       1.0  0.7229949481239221  0.07246173853924431  0.26450766420756855  1.0000
  C   C28       1.0  0.8363102966811169  0.4195501202628571  0.18648724939688988  1.0000
  C   C29       1.0  0.9094401046477207  0.4202921618568034  0.18517116993508065  1.0000
  C   C30       1.0  0.9463245640170024  0.41917834504484786  0.06744874382302823  1.0000
  C   C31       1.0  0.9092704804311739  0.4203204803276832  0.9499256405114931  1.0000
  C   C32       1.0  0.8361714058056178  0.41969680685214206  0.9492268586470405  1.0000
  C   C33       1.0  0.8001153072075443  0.4189705218930162  0.06807329481728397  1.0000
  C   C34       1.0  0.023540267533499692  0.4213458012262268  0.065807614639396  1.0000
  O   O2        1.0  0.054216537750633176  0.48200392150483995  0.9712965324515404  1.0000
  C   C35       1.0  0.06595544840962098  0.3546919806217559  0.1712832452334765  1.0000
  C   C36       1.0  0.13138803405683697  0.40504327663896555  0.2023908243264485  1.0000
  C   C37       1.0  0.17210585333592854  0.3420416004319442  0.3006162644619821  1.0000
  C   C38       1.0  0.14824346373600328  0.22777730685721131  0.36794460784496485  1.0000
  C   C39       1.0  0.08373378949120336  0.17597751117351712  0.3368133460645799  1.0000
  C   C40       1.0  0.04281763615098977  0.23860080321322785  0.23868986945649873  1.0000
  H   H17       1.0  0.6983035939086679  0.420161476550013  0.39613613133910053  1.0000
  H   H18       1.0  0.9377986363551615  0.4231955579273583  0.27576610593837914  1.0000
  H   H19       1.0  0.9376358928107358  0.4204447320923481  0.8589692819458894  1.0000
  H   H20       1.0  0.7437377353189415  0.41839926244406467  0.06828365790012336  1.0000
  H   H21       1.0  0.808090070866975  0.42056219987707344  0.6214169909487604  1.0000
  H   H22       1.0  0.15072220277002213  0.4936844812765091  0.15148281713259415  1.0000
  H   H23       1.0  0.22221649387354447  0.3818422606115186  0.32449410635799936  1.0000
  H   H24       1.0  0.17986055507970544  0.17909740045941147  0.4438655915027516  1.0000
  H   H25       1.0  0.06553263162396283  0.08687851520428191  0.38834975957165274  1.0000
  H   H26       1.0  0.9935425283802211  0.19551657696664804  0.21462451964395757  1.0000
  Zn  Zn1       1.0  0.7599666366919935  0.41975162909464947  0.5678722323736272  1.0000
  Zn  Zn2       1.0  0.9125084280342919  0.41949467658310224  0.5678413214611389  1.0000
  C   C41       1.0  0.8361956336611028  0.4144953774897524  0.8050509753938833  1.0000
  C   C42       1.0  0.8362810969499298  0.424752564032538  0.3306627061398357  1.0000
  C   C43       1.0  0.8362608537926123  0.6568155151015702  0.5627643627560122  1.0000
  C   C44       1.0  0.8362158246050997  0.18243086621308247  0.5729493874845364  1.0000
  O   O3        1.0  0.8941601115490251  0.42639537378414527  0.3790375739816685  1.0000
  O   O4        1.0  0.8940923090886119  0.41265656692916197  0.756652272697127  1.0000
  O   O5        1.0  0.894144194554864  0.6083331441813067  0.5610041194017152  1.0000
  O   O6        1.0  0.8941081740492073  0.23071880589121374  0.5746856299159575  1.0000
  O   O7        1.0  0.7783668386220527  0.6085274998756356  0.561027923922526  1.0000
  O   O8        1.0  0.7783149533140956  0.41285248292022647  0.7566760085148261  1.0000
  O   O9        1.0  0.7783827561007558  0.4265912442187241  0.3790597483792082  1.0000
  O   O10       1.0  0.7783308185794784  0.23091466705567765  0.5747079016783372  1.0000
