data_image0
_chemical_formula_structural       NC8NC6H8C7OC3FC3H9C6NCOC6H11Zn2C4O8
_chemical_formula_sum              "N3 C44 H28 O10 F1 Zn2"
_cell_length_a       17.457602349358154
_cell_length_b       10.29937835083307
_cell_length_c       10.299662537453274
_cell_angle_alpha    85.53091033731847
_cell_angle_beta     92.86302956752768
_cell_angle_gamma    91.70902404556999

_space_group_name_H-M_alt    "P 1"
_space_group_IT_number       1

loop_
  _space_group_symop_operation_xyz
  'x, y, z'

loop_
  _atom_site_type_symbol
  _atom_site_label
  _atom_site_symmetry_multiplicity
  _atom_site_fract_x
  _atom_site_fract_y
  _atom_site_fract_z
  _atom_site_occupancy
  N   N1        1.0  0.722923325570371  0.453415755973936  0.6262971213231123  1.0000
  C   C1        1.0  0.6618371251747587  0.4074924533874069  0.615687546790344  1.0000
  C   C2        1.0  0.5858433087392745  0.35036957601502805  0.602498777334584  1.0000
  C   C3        1.0  0.527312819918358  0.3905050410704627  0.6773916228979358  1.0000
  C   C4        1.0  0.4527574502709704  0.33550029113309887  0.6648170088851972  1.0000
  C   C5        1.0  0.3906359281794258  0.37787734120601346  0.744131390139033  1.0000
  C   C6        1.0  0.3161009058582341  0.39636758724984267  0.6883649088278909  1.0000
  C   C7        1.0  0.2575703602389179  0.436319077818073  0.7633657339516413  1.0000
  C   C8        1.0  0.1815976179868608  0.455416038974364  0.7053836909864626  1.0000
  N   N2        1.0  0.1205284483498171  0.47076361570042  0.6587662803580374  1.0000
  C   C9        1.0  0.2730826553453027  0.4580232833027862  0.8946415291834289  1.0000
  C   C10       1.0  0.346833002440951  0.4399218955952773  0.9507955589945309  1.0000
  C   C11       1.0  0.4053519179084549  0.40015029509633937  0.8762524345264047  1.0000
  C   C12       1.0  0.438021270150019  0.23968316572967652  0.5759167097281521  1.0000
  C   C13       1.0  0.4965400445009768  0.1998262426377977  0.5014238329519625  1.0000
  C   C14       1.0  0.5703105961295659  0.25494316611433465  0.5145483860665081  1.0000
  H   H1        1.0  0.539663573561109  0.4656776902083697  0.7440126742103286  1.0000
  H   H2        1.0  0.3037668646446169  0.38143506547323414  0.5863416149051137  1.0000
  H   H3        1.0  0.2282200809813844  0.4888852917385531  0.9534736591126463  1.0000
  H   H4        1.0  0.3586537146304196  0.45641228917415155  0.05244537771943614  1.0000
  H   H5        1.0  0.4618279658756166  0.38514043471022896  0.9223613061324807  1.0000
  H   H6        1.0  0.3815284778173597  0.19434957168076217  0.5652709379143335  1.0000
  H   H7        1.0  0.48470350340310503  0.1257705572158141  0.433604298819962  1.0000
  H   H8        1.0  0.615172959179906  0.22321122766690005  0.4562275034641541  1.0000
  C   C15       1.0  0.921648680308424  0.08070130798606945  0.6425894131070731  1.0000
  C   C16       1.0  0.8416042032971408  0.07722268131307808  0.6200277539790062  1.0000
  C   C17       1.0  0.8011343663843405  0.9581755226250702  0.610117683509612  1.0000
  C   C18       1.0  0.8417917980376675  0.8419868606778467  0.6200499486831705  1.0000
  C   C19       1.0  0.9218104069071067  0.843468382008047  0.6424858241534201  1.0000
  C   C20       1.0  0.9612521351248507  0.9633243106908952  0.6539657403557138  1.0000
  C   C21       1.0  0.7167079153723076  0.9544693779888752  0.5849286615856291  1.0000
  O   O1        1.0  0.6870835509855152  0.8685119193377214  0.5158472494668453  1.0000
  C   C22       1.0  0.6658885380196765  0.048177721104126325  0.6381186342175817  1.0000
  C   C23       1.0  0.5975557560394763  0.08521883769937788  0.5687564282883464  1.0000
  C   C24       1.0  0.5488128957120296  0.17232834741352  0.6188378935473349  1.0000
  F   F1        1.0  0.48336051389482837  0.20818680638003584  0.5507722861564341  1.0000
  C   C25       1.0  0.5674696427900843  0.2223937573411343  0.738968703451764  1.0000
  C   C26       1.0  0.634700838414627  0.18505176508228494  0.8094555372146373  1.0000
  C   C27       1.0  0.6836022798544176  0.09802062752547869  0.7597917416119189  1.0000
  H   H9        1.0  0.07283624833762947  0.29474720807707255  0.6831807610228515  1.0000
  H   H10       1.0  0.8107361297101977  0.1673906880527274  0.6086937133290244  1.0000
  H   H11       1.0  0.8107338183510162  0.7501655036745607  0.611461276152008  1.0000
  H   H12       1.0  0.022960478573415655  0.965202070302857  0.6713583607960782  1.0000
  H   H13       1.0  0.9526222599602379  0.5166692622097342  0.6500144861093327  1.0000
  H   H14       1.0  0.5822827782647841  0.0475858637767832  0.47534913443660165  1.0000
  H   H15       1.0  0.5297162743410082  0.28971854513930206  0.7777654465123505  1.0000
  H   H16       1.0  0.6487877010128776  0.2231200693199349  0.9029795449623468  1.0000
  H   H17       1.0  0.7347244826272283  0.06866889218784822  0.8171196201981294  1.0000
  C   C28       1.0  0.9217823934440116  0.46222767042509094  0.26116592774668956  1.0000
  C   C29       1.0  0.00010636582326384314  0.49802087864133804  0.26374306291547867  1.0000
  C   C30       1.0  0.03978766234132469  0.5141778614732575  0.1483766359979375  1.0000
  C   C31       1.0  0.99997205287065  0.4977049327215626  0.02858884558868935  1.0000
  C   C32       1.0  0.92167673128857  0.461941980026088  0.023909298551378688  1.0000
  C   C33       1.0  0.8830893545447092  0.44396356000740234  0.14080770657997688  1.0000
  N   N3        1.0  0.11968616570622403  0.5527508858665338  0.15441234397616155  1.0000
  C   C34       1.0  0.17397616169431496  0.5152679611462321  0.06463886301672828  1.0000
  O   O2        1.0  0.15996222909648572  0.41609434827466263  0.0019580355514752235  1.0000
  C   C35       1.0  0.24765111741286483  0.5888139954229199  0.048294087703668165  1.0000
  C   C36       1.0  0.256934001890718  0.7172944175689804  0.0853863453901853  1.0000
  C   C37       1.0  0.32654835974095753  0.7858899224738753  0.06887054954132821  1.0000
  C   C38       1.0  0.38743793652991765  0.7275171107632392  0.014877414657636923  1.0000
  C   C39       1.0  0.3787779043163797  0.6005103055836902  0.9768298308051913  1.0000
  C   C40       1.0  0.30929425985895587  0.5314634532818259  0.9930272914672011  1.0000
  H   H18       1.0  0.7738606248779422  0.39590819558465284  0.4634603975744471  1.0000
  H   H19       1.0  0.030847588124547576  0.5125818463229117  0.35567179820824024  1.0000
  H   H20       1.0  0.029690905485427965  0.5149661547936446  0.9389000957606544  1.0000
  H   H21       1.0  0.8227128214327888  0.41635418389715473  0.13795711401415978  1.0000
  H   H22       1.0  0.8913953023367672  0.44989330709273423  0.6945145310662064  1.0000
  H   H23       1.0  0.1406343150448306  0.6008705954283831  0.23503837040266862  1.0000
  H   H24       1.0  0.21032822631516868  0.7657982320397858  0.12534654652173471  1.0000
  H   H25       1.0  0.33316909991315513  0.8846623090673984  0.09751198510244663  1.0000
  H   H26       1.0  0.4412436506740025  0.7808448857652184  0.0021459651239568167  1.0000
  H   H27       1.0  0.4259514950615739  0.5554487136362334  0.9347184944743425  1.0000
  H   H28       1.0  0.3039882093323596  0.43297105769521815  0.9631181443737238  1.0000
  Zn  Zn1       1.0  0.8376635735159079  0.4584184878666353  0.6356745182442356  1.0000
  Zn  Zn2       1.0  0.005788182423175137  0.46575023145824246  0.6493995174878922  1.0000
  C   C41       1.0  0.9216938753458551  0.4568219735248955  0.8797350368315584  1.0000
  C   C42       1.0  0.9217597168385473  0.4673484645184556  0.4053392760219552  1.0000
  C   C43       1.0  0.9217766170813292  0.6992909135411789  0.6373298690719413  1.0000
  C   C44       1.0  0.9216769173934295  0.2248779615916543  0.647744508549243  1.0000
  O   O3        1.0  0.9855545180526886  0.47184374224591696  0.45893373519698843  1.0000
  O   O4        1.0  0.9855017619977292  0.45789033990562933  0.8365571607919076  1.0000
  O   O5        1.0  0.985567716721384  0.6536870373937507  0.6408132023708588  1.0000
  O   O6        1.0  0.9854885059749559  0.2760470515831388  0.6546775915579868  1.0000
  O   O7        1.0  0.8579631925914507  0.6481216652411914  0.6303964394836408  1.0000
  O   O8        1.0  0.8578972382047634  0.4523265281630402  0.8261403284465187  1.0000
  O   O9        1.0  0.8579499945174998  0.46627988583207003  0.44851534144986993  1.0000
  O   O10       1.0  0.8578839824211686  0.2704831858434009  0.6442592951804189  1.0000
