data_image0
_chemical_formula_structural       NC10NC3NH7C6SCOC6H10C7OC6OCH12Zn2C4O8
_chemical_formula_sum              "N3 C44 H29 S1 O11 Zn2"
_cell_length_a       19.210446455230148
_cell_length_b       10.302038109246572
_cell_length_c       10.299362532796529
_cell_angle_alpha    85.5856087193975
_cell_angle_beta     90.00583596421428
_cell_angle_gamma    89.9653702289085

_space_group_name_H-M_alt    "P 1"
_space_group_IT_number       1

loop_
  _space_group_symop_operation_xyz
  'x, y, z'

loop_
  _atom_site_type_symbol
  _atom_site_label
  _atom_site_symmetry_multiplicity
  _atom_site_fract_x
  _atom_site_fract_y
  _atom_site_fract_z
  _atom_site_occupancy
  N   N1        1.0  0.6555062893198579  0.41940830964028275  0.567570516745378  1.0000
  C   C1        1.0  0.595277975400251  0.42161533238618976  0.5678020323376323  1.0000
  C   C2        1.0  0.5204738276792686  0.4243516363789934  0.5680888516164835  1.0000
  C   C3        1.0  0.4848757515612852  0.5405570539193716  0.5832199494444816  1.0000
  C   C4        1.0  0.412210276745172  0.5407085373723057  0.5831673779780489  1.0000
  C   C5        1.0  0.3753071500870213  0.42506044852717717  0.5681754526325604  1.0000
  C   C6        1.0  0.2979848776032374  0.4237042730222005  0.5680246349869518  1.0000
  C   C7        1.0  0.2602294068294367  0.5272301620151068  0.5046808452229603  1.0000
  C   C8        1.0  0.1874509109991147  0.525828255032776  0.5045715372415913  1.0000
  C   C9        1.0  0.1514264891172597  0.4211578887046652  0.5677550658529094  1.0000
  C   C10       1.0  0.0764968328927023  0.4198560974367507  0.5676180204647057  1.0000
  N   N2        1.0  0.0162588710960186  0.4188094130699209  0.5675078708407222  1.0000
  C   C11       1.0  0.1884583093081121  0.31775765308450277  0.6310738684576902  1.0000
  C   C12       1.0  0.261238638293699  0.3188853761983159  0.6312333758497994  1.0000
  C   C13       1.0  0.4135152943921571  0.3106749088158247  0.5533328212330095  1.0000
  N   N3        1.0  0.48428548200081417  0.3131193113594295  0.5534987916917846  1.0000
  H   H1        1.0  0.5129864808175022  0.6299714613849077  0.5952832260221745  1.0000
  H   H2        1.0  0.3849514687695845  0.6307050654152762  0.5966254608490467  1.0000
  H   H3        1.0  0.2869551901708328  0.6084481658773038  0.4537043510291896  1.0000
  H   H4        1.0  0.1593031514869137  0.6062191482849122  0.4549252840598046  1.0000
  H   H5        1.0  0.1610926371656601  0.23640357865552453  0.6806204767295323  1.0000
  H   H6        1.0  0.2887417747001216  0.2386140538784356  0.6823173602752179  1.0000
  H   H7        1.0  0.3872398261163969  0.21981566553807097  0.5398283473477152  1.0000
  C   C14       1.0  0.8358199708947183  0.03783053189089425  0.5674990473960595  1.0000
  C   C15       1.0  0.7763010448318248  0.042674126299588  0.48799060083736423  1.0000
  C   C16       1.0  0.7470142590968726  0.9281248931101069  0.4479465278610122  1.0000
  C   C17       1.0  0.7765249302315342  0.8075411394743361  0.48793655634334376  1.0000
  C   C18       1.0  0.8359518624204458  0.8003772390082071  0.5675905979690221  1.0000
  C   C19       1.0  0.8653287251320323  0.916175407671043  0.6068737724408437  1.0000
  S   S1        1.0  0.6714651419041386  0.9357532813960627  0.34535158016821565  1.0000
  C   C20       1.0  0.7226210114182374  0.9441172141481285  0.19892217596352557  1.0000
  O   O1        1.0  0.7393985788950034  0.838807183546721  0.15256967544670674  1.0000
  C   C21       1.0  0.745568834536348  0.0702248876406073  0.13342128678072562  1.0000
  C   C22       1.0  0.7947693304550364  0.07245084348787612  0.03190721674413144  1.0000
  C   C23       1.0  0.8171322989728225  0.1907306608480248  0.9701808504644576  1.0000
  C   C24       1.0  0.7906711427412908  0.30802349693478703  0.008686332029246069  1.0000
  C   C25       1.0  0.7416797966553692  0.3072693554453514  0.10884733510172562  1.0000
  C   C26       1.0  0.7190848545203248  0.1892936606119775  0.17089391107251717  1.0000
  H   H8        1.0  0.9479255827492036  0.2360051375118748  0.7175319237212612  1.0000
  H   H9        1.0  0.7526141134944067  0.1352257767212015  0.456719225742267  1.0000
  H   H10       1.0  0.7530621841666973  0.7198187320598587  0.4561766161064986  1.0000
  H   H11       1.0  0.9112139232262753  0.9115210218404401  0.6681661569014719  1.0000
  H   H12       1.0  0.8586673191524212  0.4703386989774886  0.5975529342779182  1.0000
  H   H13       1.0  0.8162977934950348  0.9828408744181523  0.0006062134412323505  1.0000
  H   H14       1.0  0.8550925286607803  0.19139697725488536  0.8924774255422152  1.0000
  H   H15       1.0  0.808063567352648  0.3994841807465157  0.9608094996908303  1.0000
  H   H16       1.0  0.7210633731548511  0.39826015134169324  0.1383875434839883  1.0000
  H   H17       1.0  0.6807166997791221  0.19201537811697578  0.2474650800846856  1.0000
  C   C27       1.0  0.835831558953444  0.4189834650068529  0.18617792453954762  1.0000
  C   C28       1.0  0.7697446956900235  0.36042663629786587  0.1894700136400691  1.0000
  C   C29       1.0  0.7361124899840101  0.33221572797612087  0.07395914872977483  1.0000
  C   C30       1.0  0.769940751655624  0.36058982941124174  0.954215699367313  1.0000
  C   C31       1.0  0.8359402608227945  0.4192242810447153  0.9489117096791575  1.0000
  C   C32       1.0  0.8684477202465987  0.44833843862687783  0.06543172431897037  1.0000
  C   C33       1.0  0.6666801765791375  0.26904850688465376  0.07976641981557853  1.0000
  O   O2        1.0  0.6524446911155152  0.18988455200964927  0.17565594768797754  1.0000
  C   C34       1.0  0.6134000589320697  0.2956818030135282  0.9768640487405316  1.0000
  C   C35       1.0  0.6080684104067275  0.41903359826631026  0.9090263842758568  1.0000
  C   C36       1.0  0.5571217595067576  0.4432919744228305  0.8133425460628243  1.0000
  C   C37       1.0  0.5102803077077835  0.3457288745086944  0.7842901480803977  1.0000
  C   C38       1.0  0.5148799388917933  0.22257180248304498  0.8530461789155437  1.0000
  C   C39       1.0  0.565820329798227  0.19818626813056572  0.9488024079577331  1.0000
  O   O3        1.0  0.4601754085225152  0.3749646389614678  0.6873177997511948  1.0000
  C   C40       1.0  0.4094065280043476  0.2853092107648074  0.647943223439988  1.0000
  H   H18       1.0  0.9606561690766839  0.5289886739313494  0.3872737902056289  1.0000
  H   H19       1.0  0.7439675517461597  0.3377339479269381  0.2820058409377568  1.0000
  H   H20       1.0  0.7450526324505433  0.3355570925230633  0.8651629379521304  1.0000
  H   H21       1.0  0.9193617093240462  0.4935664678312315  0.06207286549503843  1.0000
  H   H22       1.0  0.861375763519731  0.4412347854618883  0.6194407433802693  1.0000
  H   H23       1.0  0.6427780292789709  0.49720791796748  0.9308539554621906  1.0000
  H   H24       1.0  0.5538216317414356  0.5387339259338106  0.7617909412364718  1.0000
  H   H25       1.0  0.479370847663496  0.1450844337586492  0.8333156046051253  1.0000
  H   H26       1.0  0.5684441151650653  0.10256361468938602  0.0002409162428624878  1.0000
  H   H27       1.0  0.3767184890075938  0.33404686001717665  0.5698713466888559  1.0000
  H   H28       1.0  0.3754100355286114  0.2531603699056941  0.7314949332683311  1.0000
  H   H29       1.0  0.4353404042392249  0.19996668629327674  0.6092726516946905  1.0000
  Zn  Zn1       1.0  0.7596116913659342  0.4192320201639863  0.5675599371021451  1.0000
  Zn  Zn2       1.0  0.9121534527959562  0.41897512587026786  0.5675290849347097  1.0000
  C   C41       1.0  0.8359172569747273  0.41400632535060167  0.8047380582390882  1.0000
  C   C42       1.0  0.8358495532399189  0.4242024561490254  0.3303510911232599  1.0000
  C   C43       1.0  0.8359225922341919  0.6562380422131213  0.5623981272648364  1.0000
  C   C44       1.0  0.83584416566872  0.18196917946402702  0.5726910911590726  1.0000
  O   O4        1.0  0.8937443947919153  0.42585084281098085  0.37872521395028214  1.0000
  O   O5        1.0  0.8937980825493625  0.4121619822559901  0.7563401453692471  1.0000
  O   O6        1.0  0.8938016106625251  0.607767158801233  0.5606489368321912  1.0000
  O   O7        1.0  0.8937408146143128  0.230245675610669  0.5744163251248307  1.0000
  O   O8        1.0  0.7780242774925603  0.6079614705126621  0.5606726969157214  1.0000
  O   O9        1.0  0.7780207496361149  0.4123578538789754  0.7563638363949128  1.0000
  O   O10       1.0  0.7779670616946377  0.42604666869566876  0.37874734357813544  1.0000
  O   O11       1.0  0.7779634815264578  0.2304414922395026  0.5744385521188884  1.0000
