data_image0
_chemical_formula_structural       NC8NC6H8C7OC3OC4H12C7OC6H10Zn2C4O8
_chemical_formula_sum              "N2 C45 H30 O11 Zn2"
_cell_length_a       17.457602349358154
_cell_length_b       10.299371110280156
_cell_length_c       10.299382801718286
_cell_angle_alpha    85.58971110706742
_cell_angle_beta     92.85617812018302
_cell_angle_gamma    91.70033728131911

_space_group_name_H-M_alt    "P 1"
_space_group_IT_number       1

loop_
  _space_group_symop_operation_xyz
  'x, y, z'

loop_
  _atom_site_type_symbol
  _atom_site_label
  _atom_site_symmetry_multiplicity
  _atom_site_fract_x
  _atom_site_fract_y
  _atom_site_fract_z
  _atom_site_occupancy
  N   N1        1.0  0.7228974727140156  0.45259311001232705  0.6269985330069556  1.0000
  C   C1        1.0  0.661815444455047  0.40666567329653125  0.6163679378891702  1.0000
  C   C2        1.0  0.5858268171279714  0.3495376581673113  0.603153021265981  1.0000
  C   C3        1.0  0.5272886057689191  0.38971333695317556  0.6780628510063904  1.0000
  C   C4        1.0  0.4527382250449667  0.33470370955154904  0.6654630567235649  1.0000
  C   C5        1.0  0.3906085342780603  0.37712335246817874  0.744795365682392  1.0000
  C   C6        1.0  0.3160755615881627  0.39558177594366284  0.6890386170839093  1.0000
  C   C7        1.0  0.2575373007970782  0.4355735476142273  0.7640563389926243  1.0000
  C   C8        1.0  0.1815666993900487  0.45463742688147746  0.706084356250233  1.0000
  N   N2        1.0  0.1204992514710377  0.4699584061012554  0.659475031086207  1.0000
  C   C9        1.0  0.2730397809276781  0.4573501309500547  0.8953393999455923  1.0000
  C   C10       1.0  0.34678802457090363  0.43928076686918405  0.9514838687438933  1.0000
  C   C11       1.0  0.4053146130171877  0.3994691335700564  0.8769239210356643  1.0000
  C   C12       1.0  0.4380148971740915  0.23884072005749846  0.5765203102580418  1.0000
  C   C13       1.0  0.4965413479096256  0.19894379550535324  0.5020105697079797  1.0000
  C   C14       1.0  0.5703068678723476  0.25406589882534747  0.515160343360924  1.0000
  H   H1        1.0  0.5396294703923605  0.4649202254022906  0.744717270114257  1.0000
  H   H2        1.0  0.3037490002083536  0.3805929292871342  0.5870105717712459  1.0000
  H   H3        1.0  0.22817119109993012  0.4882437551933332  0.9541845635037536  1.0000
  H   H4        1.0  0.3586011609505101  0.455827216515184  0.05313916744995262  1.0000
  H   H5        1.0  0.4617889450209065  0.3844855739303359  0.9230248741601683  1.0000
  H   H6        1.0  0.3815262341144552  0.1935029487876383  0.5658537914330051  1.0000
  H   H7        1.0  0.48471468483209623  0.12485315892404292  0.4341582098401575  1.0000
  H   H8        1.0  0.6151752811775238  0.22230266351016414  0.4568260138789588  1.0000
  C   C15       1.0  0.9216503276980389  0.07990222416195047  0.6431180567063683  1.0000
  C   C16       1.0  0.9128381390974485  0.08878135514884278  0.5064148039610867  1.0000
  C   C17       1.0  0.9075268731953927  0.9760350026065453  0.43756286492441276  1.0000
  C   C18       1.0  0.9128761574057556  0.8535151883496142  0.5067289915530284  1.0000
  C   C19       1.0  0.9217537323788583  0.8426396028119741  0.6433673522490904  1.0000
  C   C20       1.0  0.925888575913012  0.9564191073746582  0.7107925130290447  1.0000
  C   C21       1.0  0.8990219386869139  0.9853176325748042  0.29312288727717495  1.0000
  O   O1        1.0  0.9304839719894502  0.9016419934401835  0.2316705672086401  1.0000
  C   C22       1.0  0.8548163757921085  0.08944386995980524  0.2184021557757303  1.0000
  C   C23       1.0  0.8762864112973412  0.1355198154012609  0.09301482876564804  1.0000
  C   C24       1.0  0.8348032589150922  0.23270942710565512  0.020246484258073183  1.0000
  O   O2        1.0  0.8593229732952935  0.2755661034940491  0.8961529559075516  1.0000
  C   C25       1.0  0.8227693022743169  0.3734407672035962  0.8117332123252594  1.0000
  C   C26       1.0  0.7704343581827674  0.28376693619979076  0.0734761532880559  1.0000
  C   C27       1.0  0.748176975373798  0.237366505177812  0.19728212838392079  1.0000
  C   C28       1.0  0.7897964271447905  0.14046401820736265  0.2693094374375977  1.0000
  H   H9        1.0  0.9394506412179039  0.27053692265651885  0.9009618699398807  1.0000
  H   H10       1.0  0.91094915394231  0.18362421743898283  0.4532314337312513  1.0000
  H   H11       1.0  0.9093593885285709  0.7664922266879887  0.45371992697407215  1.0000
  H   H12       1.0  0.932682621429365  0.9487701683168717  0.8161807446690887  1.0000
  H   H13       1.0  0.9258022713859851  0.5110422450589645  0.6957842772832337  1.0000
  H   H14       1.0  0.9258997856134947  0.09678288745965458  0.051695002967125925  1.0000
  H   H15       1.0  0.8540844636536467  0.387883570763484  0.7204213132285746  1.0000
  H   H16       1.0  0.8238901138956778  0.4669544548805489  0.8588432527460168  1.0000
  H   H17       1.0  0.7626491742905158  0.34257831087348345  0.7870585619599546  1.0000
  H   H18       1.0  0.7371202634202476  0.35880247165417667  0.01986717191672538  1.0000
  H   H19       1.0  0.6982738908409442  0.2762519758108055  0.23735657294117996  1.0000
  H   H20       1.0  0.7706385532319416  0.10449552400121664  0.36412211653864524  1.0000
  C   C29       1.0  0.9217785478021119  0.4612010256152588  0.2618791343431559  1.0000
  C   C30       1.0  0.002378237266086991  0.46558468829953314  0.26715921447620783  1.0000
  C   C31       1.0  0.04303023328003386  0.46630758909546377  0.15276373527531817  1.0000
  C   C32       1.0  0.002191287610999959  0.46560456016458374  0.03189838440850368  1.0000
  C   C33       1.0  0.921625474350884  0.46134079647158854  0.024606211553537927  1.0000
  C   C34       1.0  0.8818863962290585  0.4588190363940039  0.1402004717604115  1.0000
  C   C35       1.0  0.1281332162621447  0.4723201357004043  0.15808726433585174  1.0000
  O   O3        1.0  0.16194476484799214  0.5345060646162871  0.06634134012817539  1.0000
  C   C36       1.0  0.17487887740513353  0.40777819155176265  0.26739063545345765  1.0000
  C   C37       1.0  0.2469966188207391  0.461388003998878  0.30439863557091296  1.0000
  C   C38       1.0  0.29187165208506105  0.4004136954228472  0.4062986094993537  1.0000
  C   C39       1.0  0.26556835918546273  0.28496069503212484  0.4714779754187801  1.0000
  C   C40       1.0  0.19446775609483158  0.2299483352195335  0.4345295803195377  1.0000
  C   C41       1.0  0.14937411839038628  0.29053438180218505  0.33271369168619547  1.0000
  H   H21       1.0  0.7696751412296168  0.45494011508395604  0.4590800337323184  1.0000
  H   H22       1.0  0.033633545185014935  0.46990025495897614  0.3603119551167626  1.0000
  H   H23       1.0  0.033454094517342714  0.46714131444706  0.9435005330354151  1.0000
  H   H24       1.0  0.8197501085575082  0.4554403614698226  0.13532569276767226  1.0000
  H   H25       1.0  0.8906757921273434  0.4608078368910222  0.6942634307785278  1.0000
  H   H26       1.0  0.2683083756161433  0.5509923265960868  0.2552319235752343  1.0000
  H   H27       1.0  0.3471020643890772  0.44270985010847785  0.4346951706613835  1.0000
  H   H28       1.0  0.30041350434800873  0.23785502582146245  0.5502522008271074  1.0000
  H   H29       1.0  0.1744047278447438  0.13994263965284182  0.4844269077318124  1.0000
  H   H30       1.0  0.09506448466406248  0.2449962551199274  0.3042050830110343  1.0000
  Zn  Zn1       1.0  0.837636755447743  0.4576008779806149  0.6363780460466846  1.0000
  Zn  Zn2       1.0  0.005759950910530831  0.4649399921284678  0.6501061469447187  1.0000
  C   C42       1.0  0.9216520187927562  0.45614055353870464  0.8804326669516158  1.0000
  C   C43       1.0  0.9217465236621425  0.46640203537667047  0.40605180395042195  1.0000
  C   C44       1.0  0.9217312696779559  0.6984648723211089  0.6381447933338165  1.0000
  C   C45       1.0  0.921667215182837  0.22407615378057089  0.6483397416114955  1.0000
  O   O4        1.0  0.9855376517968975  0.4709270315232681  0.45964720979873297  1.0000
  O   O5        1.0  0.9854625058505169  0.45718479541154977  0.8372561978772981  1.0000
  O   O6        1.0  0.9855256415918128  0.6528647101398402  0.6416069559145077  1.0000
  O   O7        1.0  0.9854744587073409  0.27524712356313064  0.6552963497067881  1.0000
  O   O8        1.0  0.857922190278739  0.647293744042885  0.6311878385930569  1.0000
  O   O9        1.0  0.8578590547593549  0.45161538962522285  0.8268370118210162  1.0000
  O   O10       1.0  0.8579342010639216  0.4653575801965264  0.4492264623530611  1.0000
  O   O11       1.0  0.8578710079504315  0.2696776629651698  0.6448756996242946  1.0000
