data_image0
_chemical_formula_structural       NC12NC2H8C7OC4NC3H9C7OC3NC3H11Zn2C4O8
_chemical_formula_sum              "N4 C45 H28 O10 Zn2"
_cell_length_a       19.240039667572717
_cell_length_b       10.299371701877257
_cell_length_c       10.298749378158432
_cell_angle_alpha    85.57636868446646
_cell_angle_beta     90.00886307587598
_cell_angle_gamma    90.00851160782973

_space_group_name_H-M_alt    "P 1"
_space_group_IT_number       1

loop_
  _space_group_symop_operation_xyz
  'x, y, z'

loop_
  _atom_site_type_symbol
  _atom_site_label
  _atom_site_symmetry_multiplicity
  _atom_site_fract_x
  _atom_site_fract_y
  _atom_site_fract_z
  _atom_site_occupancy
  N   N1        1.0  0.6544715715393937  0.4213969819449137  0.567879604599806  1.0000
  C   C1        1.0  0.594323202722009  0.4213970659332118  0.567879522688445  1.0000
  C   C2        1.0  0.519505165578807  0.421397183230644  0.5678793854175739  1.0000
  C   C3        1.0  0.48303488641711734  0.35692310138992034  0.6712751104972832  1.0000
  C   C4        1.0  0.4103641366617811  0.3568122125880555  0.6713616170694767  1.0000
  C   C5        1.0  0.37317293062998597  0.4213972758150011  0.5678791577526359  1.0000
  C   C6        1.0  0.4103574030163905  0.4859825260127324  0.4643968930651323  1.0000
  C   C7        1.0  0.4830280898161852  0.48587140170047793  0.464483522056945  1.0000
  C   C8        1.0  0.2959678401761996  0.4213971971615118  0.5678790622986059  1.0000
  C   C9        1.0  0.25877448772843265  0.3081325691568273  0.609709252172216  1.0000
  C   C10       1.0  0.18610380028649717  0.3082394773231154  0.6096179606660128  1.0000
  C   C11       1.0  0.1496355532477699  0.4213970679831527  0.5678791231637534  1.0000
  C   C12       1.0  0.0748175161043593  0.4213969542192011  0.5678793718011115  1.0000
  N   N2        1.0  0.014669199266270999  0.42139691337813945  0.5678795802220087  1.0000
  C   C13       1.0  0.18611481706730817  0.5345547344754555  0.5261402327958038  1.0000
  C   C14       1.0  0.2587855142282534  0.534661822776821  0.5260487787514805  1.0000
  H   H1        1.0  0.5107524676925638  0.30700580830290214  0.7520037195457225  1.0000
  H   H2        1.0  0.3832737010761082  0.3076929138187028  0.7532061366125358  1.0000
  H   H3        1.0  0.3832613078118765  0.5351018518388464  0.3825523226799141  1.0000
  H   H4        1.0  0.5107402800186821  0.5357885945016325  0.3837551887879913  1.0000
  H   H5        1.0  0.2858632504707693  0.21897429644280808  0.6408447912919726  1.0000
  H   H6        1.0  0.1583846029432785  0.21998030111387412  0.6417869026506944  1.0000
  H   H7        1.0  0.1584041909619898  0.6228138861465464  0.49397130535322864  1.0000
  H   H8        1.0  0.2858832303057183  0.6238201746714489  0.4949131948872456  1.0000
  C   C15       1.0  0.8345373581682074  0.04002653478627849  0.5677525725089991  1.0000
  C   C16       1.0  0.8379028987959165  0.04937854936612451  0.43107905838614236  1.0000
  C   C17       1.0  0.838811190465775  0.9369265391762056  0.36208232411434227  1.0000
  C   C18       1.0  0.8379115228346845  0.8141102077785931  0.43139647427757355  1.0000
  C   C19       1.0  0.8346100883089212  0.8027573711684576  0.5680178012772947  1.0000
  C   C20       1.0  0.832759244296324  0.9163172033393313  0.6353895289456437  1.0000
  C   C21       1.0  0.8430949054744582  0.9466578588239971  0.21782323778352009  1.0000
  O   O1        1.0  0.8765416443830765  0.8609155053971241  0.16287389820775156  1.0000
  C   C22       1.0  0.8094236796425964  0.053577807910809794  0.1359058921201366  1.0000
  C   C23       1.0  0.8391804341624074  0.0982318581645778  0.015928048928627314  1.0000
  C   C24       1.0  0.8073425136978928  0.19814149292447625  0.9371323035371644  1.0000
  C   C25       1.0  0.8384474360137141  0.2439797720779815  0.8149681730937375  1.0000
  N   N3        1.0  0.8634544096470331  0.2808241176229873  0.7167659276700111  1.0000
  C   C26       1.0  0.745228858505818  0.25331666080143966  0.9773066888033699  1.0000
  C   C27       1.0  0.7148852445899357  0.2084521253626046  0.0955448725408965  1.0000
  C   C28       1.0  0.7465236080095535  0.10883996599319579  0.17432921963464354  1.0000
  H   H9        1.0  0.8292550109187964  0.2296931695918647  0.8257568536535314  1.0000
  H   H10       1.0  0.8406002693002715  0.14430658622289783  0.37818909767708053  1.0000
  H   H11       1.0  0.8391268883474461  0.7272769985891532  0.3783808695783899  1.0000
  H   H12       1.0  0.8301650386749597  0.9083035917676189  0.7407550666304294  1.0000
  H   H13       1.0  0.8339268164593291  0.47093571159790143  0.6205463847804678  1.0000
  H   H14       1.0  0.8873772355810112  0.05614327379567907  0.9843491588893989  1.0000
  H   H15       1.0  0.720168642948606  0.3305377973833772  0.9170634040889265  1.0000
  H   H16       1.0  0.6665696710063679  0.25055698889108147  0.1259706836939951  1.0000
  H   H17       1.0  0.7214213813447841  0.07412274511461003  0.26449124388155565  1.0000
  C   C29       1.0  0.8345416697516251  0.4214199672051695  0.18648414234316446  1.0000
  C   C30       1.0  0.8725171305273289  0.538285033325256  0.17650509261709324  1.0000
  C   C31       1.0  0.8910225338213927  0.5981809892202465  0.05422059134338131  1.0000
  C   C32       1.0  0.8725198974168215  0.5383338948822702  0.9412610801873798  1.0000
  C   C33       1.0  0.8346057548120711  0.4213639347071032  0.9492862325971148  1.0000
  C   C34       1.0  0.815697595943396  0.3638298144293084  0.07232027111174899  1.0000
  C   C35       1.0  0.9316878932834016  0.7209492701957458  0.04358314273565922  1.0000
  O   O2        1.0  0.9751178255404954  0.7392921135172434  0.9522426008366618  1.0000
  C   C36       1.0  0.9230858296913943  0.8229003587095647  0.13650828391723246  1.0000
  C   C37       1.0  0.8580661333138475  0.8454744366589766  0.19322041225797282  1.0000
  C   C38       1.0  0.8503010030056088  0.9429767282803765  0.27995459417319957  1.0000
  N   N4        1.0  0.7841316071682923  0.9648284279355073  0.33763435698358335  1.0000
  C   C39       1.0  0.9076592962207555  0.019228034933016502  0.3093787757180082  1.0000
  C   C40       1.0  0.9721314870327922  0.9986046134973985  0.25220799167881136  1.0000
  C   C41       1.0  0.9798565938862703  0.901413993231623  0.1658507227879531  1.0000
  H   H18       1.0  0.7637077635868941  0.1995888394661316  0.4127796978292704  1.0000
  H   H19       1.0  0.8883939421898593  0.5821309566691586  0.26406648804014154  1.0000
  H   H20       1.0  0.8871820565358377  0.5838559772452416  0.846870595336032  1.0000
  H   H21       1.0  0.7864286770632363  0.27374554369818527  0.07926052673779505  1.0000
  H   H22       1.0  0.7632186773783275  0.20011179714158267  0.757165375535227  1.0000
  H   H23       1.0  0.8132160100778452  0.7884670656161492  0.16915759799303753  1.0000
  H   H24       1.0  0.741028479053207  0.9085562353420946  0.3163867914477787  1.0000
  H   H25       1.0  0.7777704481433789  0.037347005150592416  0.4021472993588091  1.0000
  H   H26       1.0  0.9023259332530551  0.09484257896842951  0.376138136569812  1.0000
  H   H27       1.0  0.016239349767540823  0.05807180727811545  0.2748650174584786  1.0000
  H   H28       1.0  0.030347079921509312  0.8867692529223297  0.1228451596245832  1.0000
  Zn  Zn1       1.0  0.7584168356746247  0.4213934943922948  0.5678870854159834  1.0000
  Zn  Zn2       1.0  0.9107239537827929  0.421389806630482  0.567882695514851  1.0000
  C   C42       1.0  0.8345916125070295  0.4162008461803215  0.8050985072952626  1.0000
  C   C43       1.0  0.8345508403063414  0.4265840934188725  0.3306714016346435  1.0000
  C   C44       1.0  0.8345923265929434  0.6585854031935212  0.56279206330255  1.0000
  C   C45       1.0  0.8345500741056943  0.1841979760931114  0.5729779143307334  1.0000
  O   O3        1.0  0.8923536750548683  0.4283101561009077  0.3790602951049198  1.0000
  O   O4        1.0  0.8923863561309422  0.4144710048734839  0.7567059077733769  1.0000
  O   O5        1.0  0.8923861537094634  0.6101995999524481  0.5610417403830046  1.0000
  O   O6        1.0  0.892353825496947  0.23258157032061133  0.5747243651171487  1.0000
  O   O7        1.0  0.7767869119855259  0.6102017307048384  0.5610454158083524  1.0000
  O   O8        1.0  0.7767871145467933  0.41447469594110764  0.7567095144900142  1.0000
  O   O9        1.0  0.7767544333814006  0.4283138020270423  0.37906234027357755  1.0000
  O   O10       1.0  0.7767545838279347  0.2325852069507508  0.5747265076586174  1.0000
