data_image0
_chemical_formula_structural       NC12NC2H8C7OC4NC3H9C7OC3OC4H12Zn2C4O8
_chemical_formula_sum              "N3 C46 H29 O11 Zn2"
_cell_length_a       19.240039667572717
_cell_length_b       10.299371701877257
_cell_length_c       10.299374482448636
_cell_angle_alpha    85.56746279880974
_cell_angle_beta     89.98179719486372
_cell_angle_gamma    90.00851160782973

_space_group_name_H-M_alt    "P 1"
_space_group_IT_number       1

loop_
  _space_group_symop_operation_xyz
  'x, y, z'

loop_
  _atom_site_type_symbol
  _atom_site_label
  _atom_site_symmetry_multiplicity
  _atom_site_fract_x
  _atom_site_fract_y
  _atom_site_fract_z
  _atom_site_occupancy
  N   N1        1.0  0.6548337164758552  0.42162034618311006  0.5679492243057225  1.0000
  C   C1        1.0  0.5946853476791838  0.4216204301841837  0.5679491423983436  1.0000
  C   C2        1.0  0.5198673105706939  0.4216205475030259  0.5679490051341454  1.0000
  C   C3        1.0  0.4833708853961344  0.35713033928951976  0.6713397038347901  1.0000
  C   C4        1.0  0.41070011376560006  0.3570194369954407  0.6714262062016374  1.0000
  C   C5        1.0  0.3735350756794432  0.4216206401228908  0.5679487774802745  1.0000
  C   C6        1.0  0.4107457159622693  0.4862220301907707  0.4644715433787878  1.0000
  C   C7        1.0  0.4834163808559094  0.48611089236720884  0.4645581681593032  1.0000
  C   C8        1.0  0.2963299852497946  0.4216205614842894  0.5679486820308852  1.0000
  C   C9        1.0  0.25912605506603387  0.3083494093294532  0.6097768384123907  1.0000
  C   C10       1.0  0.186455390709278  0.3084563317342497  0.6096855513441437  1.0000
  C   C11       1.0  0.14999769830597368  0.4216204322964372  0.5679487428930741  1.0000
  C   C12       1.0  0.0751796610996894  0.42162031849370596  0.5679489915183447  1.0000
  N   N2        1.0  0.015031344208897  0.4216202776201379  0.5679491999291102  1.0000
  C   C13       1.0  0.1864875167743033  0.5347846086991357  0.5262118815788841  1.0000
  C   C14       1.0  0.2591582370615297  0.5348917112643603  0.5261204319804185  1.0000
  H   H1        1.0  0.5110680525659733  0.30720045516314554  0.7520643884212648  1.0000
  H   H2        1.0  0.38358898189040797  0.30788737314096215  0.7532667470349461  1.0000
  H   H3        1.0  0.3836703170601313  0.5353541211099406  0.3826309517057922  1.0000
  H   H4        1.0  0.5111489850942768  0.5360406761647065  0.38383375933890806  1.0000
  H   H5        1.0  0.2862069444634531  0.2191862804832272  0.6409108639393766  1.0000
  H   H6        1.0  0.1587280587012026  0.22019213821553962  0.6418529294992144  1.0000
  H   H7        1.0  0.1587850253301643  0.6230487776774272  0.49404451796521265  1.0000
  H   H8        1.0  0.2862638264952267  0.6240549192981735  0.4949863617111292  1.0000
  C   C15       1.0  0.8348995352276865  0.04024991883735263  0.56782219839033  1.0000
  C   C16       1.0  0.8382996369308799  0.04962325004355295  0.43115532838055914  1.0000
  C   C17       1.0  0.8392253760290614  0.9371820011018074  0.36216194824879144  1.0000
  C   C18       1.0  0.8383081807036603  0.8143548589494586  0.4314727288414433  1.0000
  C   C19       1.0  0.8349721982991403  0.8029807138524635  0.5680874142650525  1.0000
  C   C20       1.0  0.833104317778918  0.916530038223382  0.6354558667898571  1.0000
  C   C21       1.0  0.8435455703015143  0.9469358204786893  0.21790987478867363  1.0000
  O   O1        1.0  0.8770062044281274  0.8612020373629531  0.1629632064665747  1.0000
  C   C22       1.0  0.8098950591749491  0.05386854600913615  0.13599651137533897  1.0000
  C   C23       1.0  0.8396821528817021  0.09854130890719781  0.016024500669830966  1.0000
  C   C24       1.0  0.8078641577532835  0.1984632332425389  0.9372325857779824  1.0000
  C   C25       1.0  0.8389999721096061  0.24432056603009555  0.8150743941025969  1.0000
  N   N3        1.0  0.8640317784637238  0.2811802279338438  0.716876922587173  1.0000
  C   C26       1.0  0.7457403435339046  0.2536321352210562  0.9774050180457552  1.0000
  C   C27       1.0  0.7153668303444174  0.20874915846826414  0.09563745386738987  1.0000
  C   C28       1.0  0.7469852713102639  0.1091247113011764  0.17441797101562906  1.0000
  H   H9        1.0  0.8295519455976054  0.22987631336014247  0.8258139371660529  1.0000
  H   H10       1.0  0.8410103818914064  0.1445595360152887  0.37826793881252874  1.0000
  H   H11       1.0  0.8395369524445971  0.7275299184713606  0.37845970139122564  1.0000
  H   H12       1.0  0.8304834680317718  0.9084999930521394  0.7408162823370275  1.0000
  H   H13       1.0  0.8342756433760046  0.4711508615300443  0.6206134441948339  1.0000
  H   H14       1.0  0.8878869397568104  0.056457649818840716  0.9844471457760031  1.0000
  H   H15       1.0  0.7206953618917917  0.3308626677975204  0.9171646619396738  1.0000
  H   H16       1.0  0.6670435628871486  0.25084927655903067  0.12606178592974215  1.0000
  H   H17       1.0  0.7218602450815423  0.0743934280770473  0.2645756122137186  1.0000
  C   C29       1.0  0.8350002593975465  0.4217028167402388  0.18657230283657733  1.0000
  C   C30       1.0  0.9075992774225619  0.43636717094297284  0.1842060161635466  1.0000
  C   C31       1.0  0.9441285577336596  0.44523485688693176  0.06572525059395184  1.0000
  C   C32       1.0  0.9074331408248342  0.43630330000740103  0.9489671432318336  1.0000
  C   C33       1.0  0.8348714626599265  0.4215278232069104  0.9493372694197206  1.0000
  C   C34       1.0  0.7990552457965262  0.41465410667099634  0.06864620299573088  1.0000
  C   C35       1.0  0.02086954683168507  0.4593608824911246  0.06319113687701905  1.0000
  O   O2        1.0  0.05496297380531967  0.4058187106235358  0.9773253820720349  1.0000
  C   C36       1.0  0.05893032156964684  0.5342424458662314  0.1579849915850431  1.0000
  C   C37       1.0  0.12673612947192647  0.4975245059889388  0.1961364946524744  1.0000
  C   C38       1.0  0.1638669624117446  0.5677887294877453  0.284364259748658  1.0000
  O   O3        1.0  0.23110779248334  0.5258964209116546  0.31964291905158393  1.0000
  C   C39       1.0  0.274660048492815  0.5877672574784414  0.40805675229767946  1.0000
  C   C40       1.0  0.13280777450152104  0.6771756061776235  0.33431695686254925  1.0000
  C   C41       1.0  0.06581357127460108  0.715226762047869  0.29565536297983264  1.0000
  C   C42       1.0  0.029083863711935942  0.6447295287299604  0.20766854934378132  1.0000
  H   H18       1.0  0.6981156020088001  0.39204184376878093  0.39851301193947486  1.0000
  H   H19       1.0  0.9359067962910258  0.43945915963994797  0.2747983669486038  1.0000
  H   H20       1.0  0.9355805933046756  0.4421588895757089  0.8575755624293122  1.0000
  H   H21       1.0  0.7430867069899127  0.40334810954588884  0.0696667214009774  1.0000
  H   H22       1.0  0.8070619411445629  0.41476824723618666  0.6221061440984679  1.0000
  H   H23       1.0  0.1508314761409677  0.413212218964101  0.15822866379407619  1.0000
  H   H24       1.0  0.324684250625459  0.5344099283400445  0.4179968763157025  1.0000
  H   H25       1.0  0.24956247966005574  0.5859663193428655  0.5052908351246403  1.0000
  H   H26       1.0  0.285355094976544  0.6897732304822823  0.3704306797659427  1.0000
  H   H27       1.0  0.1600490182087766  0.7336134571609914  0.40252752821802584  1.0000
  H   H28       1.0  0.04237101715562375  0.8000280998151488  0.33359229480547414  1.0000
  H   H29       1.0  0.9776916209101228  0.6774563863647882  0.17745576826578824  1.0000
  Zn  Zn1       1.0  0.7587789787193882  0.42161685746372646  0.5679567047582348  1.0000
  Zn  Zn2       1.0  0.9110860979376447  0.42161317038659596  0.5679523150705086  1.0000
  C   C43       1.0  0.8348937711289883  0.4163872119792411  0.805156595072511  1.0000
  C   C44       1.0  0.8349729688516302  0.4268444544275356  0.33075255274908155  1.0000
  C   C45       1.0  0.834955758032499  0.6588095609228166  0.5628619303292435  1.0000
  C   C46       1.0  0.8349109298160129  0.18442054516068307  0.5730472861923865  1.0000
  O   O4        1.0  0.8927635673434796  0.4285629700148139  0.37913909388882483  1.0000
  O   O5        1.0  0.8927007519467399  0.4146649183451838  0.7567663480613209  1.0000
  O   O6        1.0  0.8927500277588616  0.6104240306752338  0.5611116924981916  1.0000
  O   O7        1.0  0.892714239576582  0.23280386699861944  0.5747936520785448  1.0000
  O   O8        1.0  0.7771507851055073  0.6104261608543768  0.5611153677448655  1.0000
  O   O9        1.0  0.7771015094505488  0.4146686088502767  0.7567699546026252  1.0000
  O   O10       1.0  0.7771643251528433  0.4285666156219685  0.37914113895806056  1.0000
  O   O11       1.0  0.7771149973657785  0.232807503294592  0.5747957945158575  1.0000
