data_image0
_chemical_formula_structural       NC8NC6H8C7OC6H10C6NCOC6H11Zn2C4O8
_chemical_formula_sum              "N3 C44 H29 O10 Zn2"
_cell_length_a       17.457602349358154
_cell_length_b       10.299379429549807
_cell_length_c       10.299662537453274
_cell_angle_alpha    85.5174171995128
_cell_angle_beta     92.86302956752768
_cell_angle_gamma    91.68701110263541

_space_group_name_H-M_alt    "P 1"
_space_group_IT_number       1

loop_
  _space_group_symop_operation_xyz
  'x, y, z'

loop_
  _atom_site_type_symbol
  _atom_site_label
  _atom_site_symmetry_multiplicity
  _atom_site_fract_x
  _atom_site_fract_y
  _atom_site_fract_z
  _atom_site_occupancy
  N   N1        1.0  0.7225833087715938  0.45342747445486764  0.6259261816807247  1.0000
  C   C1        1.0  0.6615078518224252  0.4075038016017143  0.6153283276576373  1.0000
  C   C2        1.0  0.5855273988982564  0.35038046366370157  0.6021541370583527  1.0000
  C   C3        1.0  0.5269875206563919  0.39051625232006026  0.6770367392794308  1.0000
  C   C4        1.0  0.4524450189987136  0.3355110588949257  0.6644761635363252  1.0000
  C   C5        1.0  0.3903135830825472  0.3778884506420319  0.7437797293522967  1.0000
  C   C6        1.0  0.31577423509318886  0.3963788457674948  0.6880085289748947  1.0000
  C   C7        1.0  0.25723434309251314  0.4363306584533151  0.7629991577101978  1.0000
  C   C8        1.0  0.18125713323538703  0.45542777358301256  0.7050122408333985  1.0000
  N   N2        1.0  0.12018437313643601  0.4707754740522472  0.6583909132083405  1.0000
  C   C9        1.0  0.2727415606466294  0.45803503893290975  0.8942694136114888  1.0000
  C   C10       1.0  0.346496142439663  0.4399335052790221  0.9504280632447275  1.0000
  C   C11       1.0  0.40502436220446  0.40016158411289715  0.875895089253645  1.0000
  C   C12       1.0  0.4377312546470379  0.23969316094507165  0.5756003187517373  1.0000
  C   C13       1.0  0.496259353255933  0.19983591649807297  0.5011176142285576  1.0000
  C   C14       1.0  0.570017010652571  0.25495328436680453  0.5142281004446263  1.0000
  H   H1        1.0  0.5393206881656429  0.46568950755381544  0.7436386050865926  1.0000
  H   H2        1.0  0.3034436872421772  0.3814462035941788  0.585989046118748  1.0000
  H   H3        1.0  0.2278717663243  0.4888972962003384  0.9530936669628409  1.0000
  H   H4        1.0  0.3583129968129408  0.45642403181528435  0.05207367330416868  1.0000
  H   H5        1.0  0.4615039216270724  0.3851516027065198  0.9220077916646512  1.0000
  H   H6        1.0  0.3812490678024933  0.19435920138418594  0.5649661169426441  1.0000
  H   H7        1.0  0.4844401369854446  0.12577963398600467  0.4333169805311736  1.0000
  H   H8        1.0  0.6148867971755725  0.22322109007370816  0.45591531644300076  1.0000
  C   C15       1.0  0.9213958575371932  0.0807100213756271  0.6423135973571303  1.0000
  C   C16       1.0  0.9678867172216398  0.07280899561814724  0.7578567003457226  1.0000
  C   C17       1.0  0.9906161107027659  0.9515529939490546  0.8169257546929585  1.0000
  C   C18       1.0  0.9677933727086782  0.8375829514571695  0.7575727926889275  1.0000
  C   C19       1.0  0.921379159705914  0.8434832290216738  0.6420153226039473  1.0000
  C   C20       1.0  0.8982829700856843  0.9655249519518645  0.5852395423961327  1.0000
  C   C21       1.0  0.04037339486348701  0.9431562962531371  0.9381874990467991  1.0000
  O   O1        1.0  0.08904338904374831  0.8544888914330983  0.9545178335463942  1.0000
  C   C22       1.0  0.03491341186413055  0.03524601291385632  0.040927761627081116  1.0000
  C   C23       1.0  0.10052691789976653  0.06754741053253688  0.11784876760553598  1.0000
  C   C24       1.0  0.09576142084084327  0.15306304118660963  0.21595318434930844  1.0000
  C   C25       1.0  0.025479752306281078  0.20627963424817164  0.23897317419405273  1.0000
  C   C26       1.0  0.9597483149366932  0.17366340199524166  0.16428666645050505  1.0000
  C   C27       1.0  0.9642057368107623  0.08821401445396737  0.06606942685123462  1.0000
  H   H9        1.0  0.834633077643986  0.30307275009412793  0.4231951770487563  1.0000
  H   H10       1.0  0.9871793516845357  0.16122343062536904  0.8012695030655206  1.0000
  H   H11       1.0  0.9857471466089217  0.7440490023698597  0.8024764955914396  1.0000
  H   H12       1.0  0.8624423821148511  0.9708119705223732  0.49616394211192305  1.0000
  H   H13       1.0  0.9040829613257797  0.5183658671263155  0.5970349233693146  1.0000
  H   H14       1.0  0.15556739285188415  0.027511466694120967  0.10129530865175707  1.0000
  H   H15       1.0  0.1466098784786467  0.17803201830469417  0.2742017808979754  1.0000
  H   H16       1.0  0.021895589890280176  0.2723657391673149  0.3150224835566324  1.0000
  H   H17       1.0  0.9052012308989992  0.21415888646639725  0.18288026223456855  1.0000
  H   H18       1.0  0.912297323227396  0.06251274208312951  0.010894068700425308  1.0000
  C   C28       1.0  0.92144031515737  0.4622394599540012  0.2607927391343279  1.0000
  C   C29       1.0  0.9997559139573312  0.49803295676078174  0.26336073918826686  1.0000
  C   C30       1.0  0.039433430658393664  0.5141900698618926  0.14799018869809433  1.0000
  C   C31       1.0  0.9996216749181316  0.49771700829362353  0.028206602496950506  1.0000
  C   C32       1.0  0.9213347198372678  0.46195376725155746  0.023536182852699428  1.0000
  C   C33       1.0  0.8827515490233321  0.4439752022779462  0.14043917931971595  1.0000
  N   N3        1.0  0.11932291012478347  0.5527634052585746  0.1540160520989391  1.0000
  C   C34       1.0  0.17362167498992864  0.5152801783240326  0.06425213750249226  1.0000
  O   O2        1.0  0.159630943388946  0.41610576584362  0.0015966210498252753  1.0000
  C   C35       1.0  0.2472794251105379  0.5888268055816321  0.047888591827585314  1.0000
  C   C36       1.0  0.25653225246147193  0.7173082636290655  0.08494805884037437  1.0000
  C   C37       1.0  0.3261305628566784  0.7859043216001516  0.06841475609993797  1.0000
  C   C38       1.0  0.38703379557064976  0.7275310392460137  0.014436519079994214  1.0000
  C   C39       1.0  0.3784034757412953  0.6005232100464497  0.9764213498058969  1.0000
  C   C40       1.0  0.30893598432857927  0.5314758010393075  0.9926364325520183  1.0000
  H   H19       1.0  0.7735340615844739  0.39591945039835985  0.46310413496703595  1.0000
  H   H20       1.0  0.030493729818580118  0.5125940418433266  0.35528575824214625  1.0000
  H   H21       1.0  0.029336489386599274  0.5149783695380656  0.9385134472732015  1.0000
  H   H22       1.0  0.8223814749384607  0.41636560356109364  0.13759563319746393  1.0000
  H   H23       1.0  0.8910561095911128  0.449904997173155  0.6941444904204919  1.0000
  H   H24       1.0  0.14025980218237089  0.6008835027960575  0.23462979745047918  1.0000
  H   H25       1.0  0.20991512974615412  0.7658124691724346  0.12489588086599968  1.0000
  H   H26       1.0  0.3327281958962067  0.8846775045675441  0.09703098304913005  1.0000
  H   H27       1.0  0.440827034041984  0.7808592442147881  0.001691459272923579  1.0000
  H   H28       1.0  0.4255876083415495  0.5554612547800986  0.9343215140596084  1.0000
  H   H29       1.0  0.3036529754326478  0.43298261133631955  0.9627524226113802  1.0000
  Zn  Zn1       1.0  0.8373223863617961  0.45843024668318155  0.6353023018084929  1.0000
  Zn  Zn2       1.0  0.005445280057173818  0.4657620493885679  0.6490254298502345  1.0000
  C   C41       1.0  0.92135306168549  0.4568337194691974  0.8793632278569685  1.0000
  C   C42       1.0  0.9214164405767168  0.467360295334883  0.40496478048449513  1.0000
  C   C43       1.0  0.921379079450243  0.699304614444094  0.6368961773624697  1.0000
  C   C44       1.0  0.9213903654679523  0.22488783743686747  0.6474318961455494  1.0000
  O   O3        1.0  0.9852101901509979  0.4718556093064996  0.4585580923782322  1.0000
  O   O4        1.0  0.9851606984002657  0.4579020944638681  0.8361850791496779  1.0000
  O   O5        1.0  0.9851808478090834  0.6537003706054865  0.6403911496473003  1.0000
  O   O6        1.0  0.985189983386505  0.27605733999027926  0.6543519198188175  1.0000
  O   O7        1.0  0.8575776256603733  0.6481349535809027  0.6299758071500481  1.0000
  O   O8        1.0  0.8575574762234751  0.45233823786183525  0.8257696667960084  1.0000
  O   O9        1.0  0.8576069682424351  0.46629170803284903  0.4481411186342339  1.0000
  O   O10       1.0  0.8575867614615257  0.2704934293906629  0.6439350434467501  1.0000
