data_image0
_chemical_formula_structural       NC10NC3NH7C7OC6H10C7OC6OCH12Zn2C4O8
_chemical_formula_sum              "N3 C44 H29 O11 Zn2"
_cell_length_a       19.210446455230148
_cell_length_b       10.299379429549807
_cell_length_c       10.299362532796529
_cell_angle_alpha    85.55652278512687
_cell_angle_beta     90.00583596421428
_cell_angle_gamma    89.94476483549958

_space_group_name_H-M_alt    "P 1"
_space_group_IT_number       1

loop_
  _space_group_symop_operation_xyz
  'x, y, z'

loop_
  _atom_site_type_symbol
  _atom_site_label
  _atom_site_symmetry_multiplicity
  _atom_site_fract_x
  _atom_site_fract_y
  _atom_site_fract_z
  _atom_site_occupancy
  N   N1        1.0  0.6552324726321366  0.4198309476989188  0.5668475171486909  1.0000
  C   C1        1.0  0.5950037329579005  0.4220386276002066  0.5670779085566326  1.0000
  C   C2        1.0  0.5201990573791551  0.42477574634532633  0.5673633340528281  1.0000
  C   C3        1.0  0.4845785641861761  0.5410157648047906  0.5824352406886621  1.0000
  C   C4        1.0  0.4119130601475362  0.5411672933629084  0.5823825920615744  1.0000
  C   C5        1.0  0.3750322430506398  0.4254847695469386  0.5674495740234653  1.0000
  C   C6        1.0  0.2977102321853643  0.4241281902318821  0.567299447168756  1.0000
  C   C7        1.0  0.2599347903321886  0.5276849047317587  0.5039029247446272  1.0000
  C   C8        1.0  0.1871565649423902  0.5262825803225037  0.5037943308482578  1.0000
  C   C9        1.0  0.1511523349199289  0.42158104771185023  0.567031175078575  1.0000
  C   C10       1.0  0.0762229298226691  0.4202788688271164  0.5668947927797412  1.0000
  N   N2        1.0  0.0159851699408569  0.4192318728032065  0.5667851763021188  1.0000
  C   C11       1.0  0.1882041019504854  0.31815002399882664  0.6304026463398251  1.0000
  C   C12       1.0  0.2609842133880943  0.3192780828995332  0.6305615793071193  1.0000
  C   C13       1.0  0.4132624533598945  0.31106517079696316  0.5526652068305677  1.0000
  N   N3        1.0  0.4840321694212151  0.31351030117732814  0.5528299321916206  1.0000
  H   H1        1.0  0.5126720445953064  0.6304567959918652  0.5944529725276804  1.0000
  H   H2        1.0  0.3846368910285428  0.6311906184576059  0.5957948336809489  1.0000
  H   H3        1.0  0.28664490598681  0.608927091782997  0.45288506078879687  1.0000
  H   H4        1.0  0.1589932973005243  0.6066974104861163  0.454107129207171  1.0000
  H   H5        1.0  0.1608541237440499  0.23677172586491024  0.6799906936835691  1.0000
  H   H6        1.0  0.2885028348578685  0.23898285927120044  0.6816864512863647  1.0000
  H   H7        1.0  0.387004512653104  0.22017887358840804  0.5392070136354725  1.0000
  C   C14       1.0  0.8356197640079978  0.038139552683722044  0.5669704108854159  1.0000
  C   C15       1.0  0.8778319590272036  0.028216459851574838  0.6787074731404603  1.0000
  C   C16       1.0  0.8984702038664657  0.9059736340862752  0.7359156907885342  1.0000
  C   C17       1.0  0.8777471913139248  0.7929944400847426  0.6784312085212272  1.0000
  C   C18       1.0  0.8356045340827274  0.8009133109178384  0.5666735093332016  1.0000
  C   C19       1.0  0.8146341093728318  0.9239600038344049  0.5117885166179319  1.0000
  C   C20       1.0  0.9436475633207886  0.8954111584516037  0.8531040419155951  1.0000
  O   O1        1.0  0.9878102935846483  0.8045553292594854  0.8654524677529098  1.0000
  C   C21       1.0  0.9387212553600567  0.9878179206069208  0.9562884813128292  1.0000
  C   C22       1.0  0.9982731000320767  0.01720659839751848  0.02784002689748244  1.0000
  C   C23       1.0  0.9939756573632367  0.10300471641595621  0.1263319192096215  1.0000
  C   C24       1.0  0.9302151741433675  0.15941337416049906  0.15510083802253738  1.0000
  C   C25       1.0  0.870556929223579  0.12971672019692426  0.08579338417018723  1.0000
  C   C26       1.0  0.8745748246094419  0.04399869128571754  0.9872138742320564  1.0000
  H   H8        1.0  0.7568410345553291  0.2642735436044288  0.35495503401288775  1.0000
  H   H9        1.0  0.8953478306417338  0.11578868123888242  0.720540966401102  1.0000
  H   H10       1.0  0.894048712575924  0.6986798059190367  0.7218650931867003  1.0000
  H   H11       1.0  0.782092015773009  0.9308058670146114  0.4256470573737734  1.0000
  H   H12       1.0  0.8198996114321102  0.476546863102116  0.5231091363478917  1.0000
  H   H13       1.0  0.04820696091568144  0.9746718256736505  0.00678430877321845  1.0000
  H   H14       1.0  0.04012614775421652  0.12571549253961067  0.18041938135781588  1.0000
  H   H15       1.0  0.9269836455918321  0.2257134887891339  0.23144151561460224  1.0000
  H   H16       1.0  0.8210712695035947  0.1726901308938682  0.10884882729026302  1.0000
  H   H17       1.0  0.8274634585932361  0.020605626116390274  0.9362862872770186  1.0000
  C   C27       1.0  0.8355578242220909  0.41940597656523537  0.18545514134465058  1.0000
  C   C28       1.0  0.7694822571000075  0.3608317121795388  0.18877705735491457  1.0000
  C   C29       1.0  0.7358554935331035  0.3326124038763054  0.0732805621472632  1.0000
  C   C30       1.0  0.769678281584182  0.3609949538847259  0.9535226599569899  1.0000
  C   C31       1.0  0.8356664796358522  0.41964686430763964  0.9481888038205439  1.0000
  C   C32       1.0  0.8681683226756032  0.4487696908196339  0.06469398867244647  1.0000
  C   C33       1.0  0.6664353656559149  0.26942637433380257  0.07912000852404066  1.0000
  O   O2        1.0  0.6522151516344588  0.19023884787620648  0.1750498598939545  1.0000
  C   C34       1.0  0.6131501102053838  0.29606760069987126  0.9762040713297666  1.0000
  C   C35       1.0  0.6077946660042158  0.4194561247521964  0.9083035755447373  1.0000
  C   C36       1.0  0.5568433354443034  0.4437217239980389  0.8126073809180796  1.0000
  C   C37       1.0  0.5100207044488155  0.3461295740361734  0.7836046783484596  1.0000
  C   C38       1.0  0.514644093744781  0.2229358311910885  0.852423441318396  1.0000
  C   C39       1.0  0.5655891888411224  0.19854303588710742  0.948192091544386  1.0000
  O   O3        1.0  0.45991016542043  0.37537404362801574  0.6866174382888328  1.0000
  C   C40       1.0  0.409158580244426  0.2856919199443262  0.6472885294842814  1.0000
  H   H18       1.0  0.9603612133465982  0.5294439402563651  0.3864949739995498  1.0000
  H   H19       1.0  0.7437094907807658  0.33813226691301335  0.28132444355670927  1.0000
  H   H20       1.0  0.7447949914202253  0.33595476333628005  0.8644826493891515  1.0000
  H   H21       1.0  0.9190735868575677  0.4940111869639294  0.06131209218792666  1.0000
  H   H22       1.0  0.8610977363076149  0.4416639224956991  0.6187066260994678  1.0000
  H   H23       1.0  0.6424892043438598  0.49765372136564734  0.9300913273209468  1.0000
  H   H24       1.0  0.5535247960641876  0.5391920939710111  0.7610071611216855  1.0000
  H   H25       1.0  0.479149950530033  0.1454253900985345  0.8327323365080193  1.0000
  H   H26       1.0  0.5682314206817894  0.10289191017875998  0.9996793068431367  1.0000
  H   H27       1.0  0.3764611393147717  0.3344440811488394  0.5691918273883116  1.0000
  H   H28       1.0  0.3751682895705663  0.2535335065586919  0.7308566148677182  1.0000
  H   H29       1.0  0.43510891982336986  0.20032398418090924  0.6086614283952807  1.0000
  Zn  Zn1       1.0  0.7593379086860458  0.41965460573128355  0.5668370273014802  1.0000
  Zn  Zn2       1.0  0.9118797196732981  0.41939763494561766  0.5668063059874926  1.0000
  C   C41       1.0  0.8356444823785841  0.4144273549332711  0.8040178102343396  1.0000
  C   C42       1.0  0.8355748117180195  0.42462652169597437  0.3296256495470742  1.0000
  C   C43       1.0  0.8356030889512274  0.6567311978654067  0.561554494443748  1.0000
  C   C44       1.0  0.8356161531345452  0.18232111847691224  0.5720890351937489  1.0000
  O   O4        1.0  0.8934693352813349  0.4262753991757826  0.3779989327405091  1.0000
  O   O5        1.0  0.8935256637436663  0.4125824626735035  0.7556208368118054  1.0000
  O   O6        1.0  0.8934914578509203  0.6082458819326384  0.5598299934742548  1.0000
  O   O7        1.0  0.8935034891078386  0.230611989264361  0.5737896787107926  1.0000
  O   O8        1.0  0.7777140871964706  0.608440251501644  0.5598536545818322  1.0000
  O   O9        1.0  0.7777482930450128  0.4127783926185393  0.7556444280669519  1.0000
  O   O10       1.0  0.7776919644074749  0.4264712833689013  0.3780209626211395  1.0000
  O   O11       1.0  0.7777261182451864  0.23080786419887  0.5738118059623427  1.0000
