data_image0
_chemical_formula_structural       NC11NC3H8C7OC4NC3H9C7OC3FC3H9Zn2C4O8
_chemical_formula_sum              "N3 C45 H26 O10 F1 Zn2"
_cell_length_a       17.807433833752565
_cell_length_b       10.299371701877257
_cell_length_c       10.29938172300155
_cell_angle_alpha    85.59571719418345
_cell_angle_beta     88.50784037207825
_cell_angle_gamma    90.69533246875125

_space_group_name_H-M_alt    "P 1"
_space_group_IT_number       1

loop_
  _space_group_symop_operation_xyz
  'x, y, z'

loop_
  _atom_site_type_symbol
  _atom_site_label
  _atom_site_symmetry_multiplicity
  _atom_site_fract_x
  _atom_site_fract_y
  _atom_site_fract_z
  _atom_site_occupancy
  N   N1        1.0  0.7078022353012959  0.43810299208127357  0.5351707437636515  1.0000
  C   C1        1.0  0.6569682350734434  0.4033933563655101  0.6017205627004094  1.0000
  C   C2        1.0  0.593725614857024  0.3602174298199101  0.6845000442097555  1.0000
  C   C3        1.0  0.6054260046147667  0.2966987259090832  0.807195530257294  1.0000
  C   C4        1.0  0.5440913263403833  0.255201989920689  0.8876916868091673  1.0000
  C   C5        1.0  0.4709017730215986  0.27691085389292813  0.8461330398394837  1.0000
  C   C6        1.0  0.4582246815484553  0.34058399074458046  0.7229774128601671  1.0000
  C   C7        1.0  0.3804675035341302  0.363622259613511  0.6786385957942964  1.0000
  C   C8        1.0  0.3617034947203427  0.34671641426574684  0.5490525065548275  1.0000
  C   C9        1.0  0.2884840021304625  0.36838653869271387  0.5074497743475146  1.0000
  C   C10       1.0  0.2330856123420407  0.4072808247959647  0.5946129727325584  1.0000
  C   C11       1.0  0.157729690204516  0.42960906429370627  0.5516491841711717  1.0000
  N   N2        1.0  0.0971489015625424  0.44755931002792493  0.5171094250517867  1.0000
  C   C12       1.0  0.2511581667594476  0.42439711037113703  0.7236680042179511  1.0000
  C   C13       1.0  0.324324852013523  0.4026921219661812  0.7655261527059145  1.0000
  C   C14       1.0  0.5204166685369072  0.382076166035908  0.6424976704710701  1.0000
  H   H1        1.0  0.6618845092345792  0.27929282919003495  0.8405547832686247  1.0000
  H   H2        1.0  0.5532687348479755  0.20577407679792303  0.9824099739798962  1.0000
  H   H3        1.0  0.4242485075149325  0.24237113734607307  0.9095596428334736  1.0000
  H   H4        1.0  0.4033898814177768  0.3150567012402461  0.480324862684661  1.0000
  H   H5        1.0  0.2750575392758187  0.3544798701121121  0.4074105268520396  1.0000
  H   H6        1.0  0.2087549549955896  0.45483366033610273  0.7918804445109708  1.0000
  H   H7        1.0  0.3372230720185332  0.41814415624401335  0.8653831975111108  1.0000
  H   H8        1.0  0.5119378395866614  0.43286649576261005  0.5480141847595177  1.0000
  C   C15       1.0  0.9024398835395517  0.06145981558493219  0.5260147241984894  1.0000
  C   C16       1.0  0.9061128559071153  0.07085475994402413  0.3891827743240235  1.0000
  C   C17       1.0  0.9071123581136992  0.9584036627002049  0.32014570652222885  1.0000
  C   C18       1.0  0.9061220963863054  0.8355867502661141  0.38949973381058656  1.0000
  C   C19       1.0  0.902518431301913  0.8241926495249265  0.526276286045726  1.0000
  C   C20       1.0  0.9005005177111794  0.9377262835747081  0.5937357321508174  1.0000
  C   C21       1.0  0.911779754877294  0.9681994959517564  0.17568271750722486  1.0000
  O   O1        1.0  0.9479472740504479  0.8833169645780469  0.11906041569291692  1.0000
  C   C22       1.0  0.8754047070115596  0.07420823865356274  0.0954599268400036  1.0000
  C   C23       1.0  0.9076003183205363  0.11960362312951678  0.9739990584859535  1.0000
  C   C24       1.0  0.8732061349989578  0.21865121927270348  0.8968057053363037  1.0000
  C   C25       1.0  0.9068595757007436  0.26526549977704894  0.7730911139759784  1.0000
  N   N3        1.0  0.9339154415771209  0.30273371996416865  0.67364236603018  1.0000
  C   C26       1.0  0.8060556202870264  0.2722090544547562  0.9400916072151642  1.0000
  C   C27       1.0  0.7732261044265827  0.2265871996085833  0.05984237425161054  1.0000
  C   C28       1.0  0.8074045844688219  0.12783183604555326  0.1370343363070805  1.0000
  H   H9        1.0  0.8966638491445027  0.25107352529616755  0.7842643920177703  1.0000
  H   H10       1.0  0.909042084635941  0.16583603234851174  0.33616155431313355  1.0000
  H   H11       1.0  0.9074494210712848  0.748767827409797  0.3364271911317098  1.0000
  H   H12       1.0  0.8976693353939171  0.929679586345172  0.6992233931362684  1.0000
  H   H13       1.0  0.9017663849621335  0.4923705109386917  0.5788351636596936  1.0000
  H   H14       1.0  0.9597055515548418  0.07876986566691269  0.9400058322684726  1.0000
  H   H15       1.0  0.7789828666202304  0.34875225557129563  0.8811094607463215  1.0000
  H   H16       1.0  0.7209927833073193  0.2674337348223852  0.0926885642302584  1.0000
  H   H17       1.0  0.7802478206123267  0.09248556746867354  0.22844824653542628  1.0000
  C   C29       1.0  0.9025423910277953  0.4427266377847785  0.1447748717582511  1.0000
  C   C30       1.0  0.9263034269384328  0.3128490202917418  0.15248850503206457  1.0000
  C   C31       1.0  0.9391040600211343  0.24781839780601111  0.0391325720081066  1.0000
  C   C32       1.0  0.926231602590105  0.31314041052426034  0.9172258887926881  1.0000
  C   C33       1.0  0.9024158954383182  0.44292581157862765  0.907516165631455  1.0000
  C   C34       1.0  0.8908984752234819  0.5070764672446253  0.021864944335683534  1.0000
  C   C35       1.0  0.963433648099904  0.11024059475074832  0.04720120085614532  1.0000
  O   O2        1.0  0.940286941110898  0.036434169992900944  0.9640682260412148  1.0000
  C   C36       1.0  0.014027143568275724  0.05639618008159952  0.14948028954908077  1.0000
  C   C37       1.0  0.007961462037245015  0.9242877548671167  0.19498893404298  1.0000
  C   C38       1.0  0.05599586994632055  0.8722471665180762  0.2902986393418099  1.0000
  F   F1        1.0  0.049330079742614164  0.7450178500249209  0.33423247468173867  1.0000
  C   C39       1.0  0.11087279407578388  0.9512037294832894  0.3402478737601695  1.0000
  C   C40       1.0  0.11802024656854915  0.0821329780859803  0.29462356952649715  1.0000
  C   C41       1.0  0.07013485760366778  0.13458895688252603  0.19937807044039668  1.0000
  H   H18       1.0  0.8565987532496662  0.687181426984681  0.3376369207530723  1.0000
  H   H19       1.0  0.9340814884480505  0.26164736196432226  0.24691541016239338  1.0000
  H   H20       1.0  0.9355380943710907  0.26281686197326115  0.8297507878215584  1.0000
  H   H21       1.0  0.8725801344825317  0.6072021226498241  0.015114268757412619  1.0000
  H   H22       1.0  0.8926614703039755  0.49243020061256204  0.5763837959820979  1.0000
  H   H23       1.0  0.9656333213047669  0.8617433198951034  0.15755815382967575  1.0000
  H   H24       1.0  0.14808084688136947  0.9108989178468875  0.41392418793750885  1.0000
  H   H25       1.0  0.16093770708908095  0.14294398532231445  0.33266532811141136  1.0000
  H   H26       1.0  0.07753157575386971  0.2357277111945597  0.1638093257469473  1.0000
  Zn  Zn1       1.0  0.8201592710333546  0.4408284084661196  0.5299661206904107  1.0000
  Zn  Zn2       1.0  0.9847918482210339  0.44482327674629873  0.5223246305445175  1.0000
  C   C42       1.0  0.9024376170348586  0.4377144387622369  0.763340013828014  1.0000
  C   C43       1.0  0.9025153001497628  0.44793892873764896  0.2889507819910462  1.0000
  C   C44       1.0  0.9025005733280977  0.680018478351837  0.5210518333475707  1.0000
  C   C45       1.0  0.9024522875067722  0.20563332749014163  0.5312390337828556  1.0000
  O   O3        1.0  0.9649834126729979  0.45119858711058747  0.3344376268989875  1.0000
  O   O4        1.0  0.9649218212196373  0.4374858131524224  0.7120530805276828  1.0000
  O   O5        1.0  0.964971816776104  0.6331493693896972  0.516403700116417  1.0000
  O   O6        1.0  0.9649333609556872  0.2555350387749855  0.5300869125458545  1.0000
  O   O7        1.0  0.8400177021176838  0.6301166450755924  0.5222038412899084  1.0000
  O   O8        1.0  0.839967706729951  0.43445464913438414  0.7178531529906429  1.0000
  O   O9        1.0  0.8400292984875134  0.4481673774296979  0.3402361379363772  1.0000
  O   O10       1.0  0.8399792467500292  0.2525038198305827  0.5358855209484776  1.0000
