data_image0
_chemical_formula_structural       NC9NC5H8C6NCOC6H11C7OC4NC3H9Zn2C4O8
_chemical_formula_sum              "N4 C45 H28 O10 Zn2"
_cell_length_a       17.807436237873137
_cell_length_b       10.29965916528486
_cell_length_c       10.299375074045738
_cell_angle_alpha    85.55751919023885
_cell_angle_beta     89.38493469783968
_cell_angle_gamma    88.40731929758992

_space_group_name_H-M_alt    "P 1"
_space_group_IT_number       1

loop_
  _space_group_symop_operation_xyz
  'x, y, z'

loop_
  _atom_site_type_symbol
  _atom_site_label
  _atom_site_symmetry_multiplicity
  _atom_site_fract_x
  _atom_site_fract_y
  _atom_site_fract_z
  _atom_site_occupancy
  N   N1        1.0  0.7077490160012978  0.3882548256877758  0.5574966422161789  1.0000
  C   C1        1.0  0.6471561420594335  0.3530703596656217  0.546461083173436  1.0000
  C   C2        1.0  0.5717852665980533  0.3093047586565696  0.5327340459696899  1.0000
  C   C3        1.0  0.5536885967526654  0.23793148268071618  0.4277035255414565  1.0000
  C   C4        1.0  0.48050735225881586  0.1953269951035157  0.4142927896807118  1.0000
  C   C5        1.0  0.4243739959689953  0.22371827797465693  0.5058800019121044  1.0000
  C   C6        1.0  0.346601212209695  0.17855556238846115  0.491709977309865  1.0000
  C   C7        1.0  0.2844372534766548  0.26029938498478966  0.5176759522250844  1.0000
  C   C8        1.0  0.2111136680593103  0.21749186057159453  0.5042788341042781  1.0000
  C   C9        1.0  0.1479000607445263  0.3019268132903661  0.5306095787808465  1.0000
  N   N2        1.0  0.0970893077943936  0.36980667331756223  0.5517787691346527  1.0000
  C   C10       1.0  0.1993704535916533  0.09268255129065417  0.46489030869041525  1.0000
  C   C11       1.0  0.2606770406728273  0.010924879992976422  0.43891593929597894  1.0000
  C   C12       1.0  0.3338811395204895  0.05333795206637815  0.4521103846336352  1.0000
  C   C13       1.0  0.4431621410183333  0.2955858221991843  0.6111299186853401  1.0000
  C   C14       1.0  0.516396234432598  0.3379999799896187  0.624384936083823  1.0000
  H   H1        1.0  0.5960844783603336  0.2154739647090782  0.35598015758274393  1.0000
  H   H2        1.0  0.46759112058120744  0.1416776337639971  0.33135133072361933  1.0000
  H   H3        1.0  0.2929496310122512  0.35775030711485045  0.5465851396858963  1.0000
  H   H4        1.0  0.1429002557052872  0.05865157108708785  0.4542841740321468  1.0000
  H   H5        1.0  0.2514665416013536  0.9142944831593229  0.4088065402410548  1.0000
  H   H6        1.0  0.3805118848084302  0.9876021767734657  0.43304031965541534  1.0000
  H   H7        1.0  0.4014829588705842  0.3175038207098937  0.6841476785780034  1.0000
  H   H8        1.0  0.5298410973372815  0.3928702803154702  0.7062851020331526  1.0000
  C   C15       1.0  0.9023566766031251  0.9976730811969567  0.5545231629414176  1.0000
  C   C16       1.0  0.9028765636733338  0.006981368881574301  0.4176951510913629  1.0000
  C   C17       1.0  0.904246260413108  0.8947820580714981  0.3488372348736011  1.0000
  C   C18       1.0  0.9030180904616472  0.7717842575128903  0.4179894664352173  1.0000
  C   C19       1.0  0.9024888077232323  0.7603780772264814  0.554763390928771  1.0000
  C   C20       1.0  0.9024254447523763  0.8739179751992183  0.6222543500257058  1.0000
  N   N3        1.0  0.9036236788265751  0.907937565477903  0.20877575889945765  1.0000
  C   C21       1.0  0.9388442273884527  0.8151701357382145  0.12852984711883875  1.0000
  O   O1        1.0  0.9906665118381195  0.7398781341563258  0.17474833338878715  1.0000
  C   C22       1.0  0.917017187273476  0.8100603545666633  0.9904797429470116  1.0000
  C   C23       1.0  0.8475529215064929  0.8632267009226308  0.9451526430511556  1.0000
  C   C24       1.0  0.8274308194158072  0.8572164120053557  0.8149213593164006  1.0000
  C   C25       1.0  0.8760732936783476  0.7978571035204072  0.7287476567794764  1.0000
  C   C26       1.0  0.9448763222028183  0.743935090811041  0.7727082045306504  1.0000
  C   C27       1.0  0.9652852297512087  0.7495754972268518  0.9028307983529649  1.0000
  H   H9        1.0  0.9006589518013497  0.1874124930260983  0.8126351848848195  1.0000
  H   H10       1.0  0.9027937827783165  0.10161506419560395  0.3638716728290776  1.0000
  H   H11       1.0  0.9011559930753104  0.6851019728928184  0.3652098119278775  1.0000
  H   H12       1.0  0.902034715908909  0.8658764718295615  0.7277331590779446  1.0000
  H   H13       1.0  0.9012863001685457  0.4286009431341544  0.6072441919618288  1.0000
  H   H14       1.0  0.8821913661139554  0.9951035092698581  0.16314864181064204  1.0000
  H   H15       1.0  0.808181032655908  0.9077645428915717  0.010215233929500744  1.0000
  H   H16       1.0  0.7738932263329603  0.8981997401044111  0.7809207760537702  1.0000
  H   H17       1.0  0.8603475058203541  0.7932833569334984  0.6280179451685326  1.0000
  H   H18       1.0  0.9824708234119548  0.6976863639547836  0.7059079417620686  1.0000
  H   H19       1.0  0.019011100570690553  0.7073979725759921  0.9346098389195996  1.0000
  C   C28       1.0  0.9024483100948004  0.37916673708268056  0.1732561972891784  1.0000
  C   C29       1.0  0.9602916209900353  0.4695346486294356  0.16399277539259338  1.0000
  C   C30       1.0  0.9888827342308777  0.5162215684197315  0.042072042092452744  1.0000
  C   C31       1.0  0.960169945308279  0.46930268402503006  0.9287691706175747  1.0000
  C   C32       1.0  0.9023971617529348  0.37888448311496226  0.9360304141222993  1.0000
  C   C33       1.0  0.8737359826811741  0.33459738394814775  0.0587492114412862  1.0000
  C   C34       1.0  0.05050054132304371  0.610618460187998  0.032220479536056335  1.0000
  O   O2        1.0  0.09850837796051026  0.6036587967913263  0.9418790153724688  1.0000
  C   C35       1.0  0.05764529910121996  0.7129229604458491  0.12477464456919685  1.0000
  C   C36       1.0  0.12909378402826843  0.7560974193284387  0.15549669796699983  1.0000
  C   C37       1.0  0.13639063745863744  0.8537611396107121  0.24163739200710088  1.0000
  C   C38       1.0  0.2097627038795533  0.8966351301328102  0.27336223830094575  1.0000
  N   N4        1.0  0.2687455782899786  0.931095371450626  0.2988616774892263  1.0000
  C   C39       1.0  0.07224618002417649  0.909650307528969  0.2967896264597514  1.0000
  C   C40       1.0  0.0010483120304116689  0.8684755757542773  0.26556357801878705  1.0000
  C   C41       1.0  0.9936020942774858  0.771088910884304  0.17970072204433407  1.0000
  H   H20       1.0  0.7940809996234336  0.20713087696090593  0.39816018353913796  1.0000
  H   H21       1.0  0.983751705685148  0.5026235312283254  0.2518423519091868  1.0000
  H   H22       1.0  0.9825378476061597  0.5044778163297075  0.8347070222274602  1.0000
  H   H23       1.0  0.8291432660184951  0.26492964605258384  0.06508681017778661  1.0000
  H   H24       1.0  0.8806365452616269  0.34332969472851405  0.6114182583253496  1.0000
  H   H25       1.0  0.17903041165510603  0.7130121245092333  0.11336973836661257  1.0000
  H   H26       1.0  0.07727085994733329  0.9852884017739365  0.36341912088662753  1.0000
  H   H27       1.0  0.9514861369560261  0.9125218023824619  0.3075365305219546  1.0000
  H   H28       1.0  0.9377958591124113  0.7423403892080016  0.15520700576526503  1.0000
  Zn  Zn1       1.0  0.8201042117028563  0.3829276194536606  0.5558540976165003  1.0000
  Zn  Zn2       1.0  0.9847340913459695  0.37512328974301434  0.5534319875206091  1.0000
  C   C42       1.0  0.9024042762748389  0.37376436845812244  0.791848120809225  1.0000
  C   C43       1.0  0.9024358248025012  0.38428809403890574  0.3174380658671905  1.0000
  C   C44       1.0  0.9024603217903886  0.6162127240121886  0.5495426397575573  1.0000
  C   C45       1.0  0.9023797228353164  0.14183818086638333  0.5597436164958072  1.0000
  O   O3        1.0  0.9649078149914906  0.3830395001930742  0.36490763813650196  1.0000
  O   O4        1.0  0.9648825553141791  0.3690886770786328  0.7425398488484902  1.0000
  O   O5        1.0  0.9649269704774578  0.5648688297918871  0.5468764713642777  1.0000
  O   O6        1.0  0.9648633436593222  0.18725935946889005  0.5605709190708341  1.0000
  O   O7        1.0  0.8399749032094057  0.5707915523924358  0.5487151668859911  1.0000
  O   O8        1.0  0.839930488317665  0.37501295996228823  0.7443784756129714  1.0000
  O   O9        1.0  0.8399557481417574  0.3889637383976081  0.3667447034108897  1.0000
  O   O10       1.0  0.8399112767983813  0.1931835883490045  0.5624080817148187  1.0000
