data_image0
_chemical_formula_structural       NC11NC3H8C7OC3NC3H11C7OC3FC3H9Zn2C4O8
_chemical_formula_sum              "N3 C44 H28 O10 F1 Zn2"
_cell_length_a       17.807433833752565
_cell_length_b       10.298746005989749
_cell_length_c       10.29938172300155
_cell_angle_alpha    85.57926667056456
_cell_angle_beta     88.50784037207825
_cell_angle_gamma    90.6940108729131

_space_group_name_H-M_alt    "P 1"
_space_group_IT_number       1

loop_
  _space_group_symop_operation_xyz
  'x, y, z'

loop_
  _atom_site_type_symbol
  _atom_site_label
  _atom_site_symmetry_multiplicity
  _atom_site_fract_x
  _atom_site_fract_y
  _atom_site_fract_z
  _atom_site_occupancy
  N   N1        1.0  0.7077895003934616  0.4382219145194277  0.5347572074824847  1.0000
  C   C1        1.0  0.6569558075316421  0.4035094085262716  0.601317007410697  1.0000
  C   C2        1.0  0.5937135696532391  0.360329911592123  0.6841089044509181  1.0000
  C   C3        1.0  0.605414521891447  0.296805955067833  0.8068226557331055  1.0000
  C   C4        1.0  0.5440802110852567  0.25530578754981526  0.8873307449532064  1.0000
  C   C5        1.0  0.47089046552684577  0.27701644671408676  0.8457658554522682  1.0000
  C   C6        1.0  0.4582128102056793  0.34069484894987423  0.722591918830062  1.0000
  C   C7        1.0  0.38045542817937983  0.36373502294459903  0.6782464769535308  1.0000
  C   C8        1.0  0.3616915690727995  0.3468277795854553  0.5486652491046948  1.0000
  C   C9        1.0  0.2884718845863452  0.3684996960009279  0.5070562855059466  1.0000
  C   C10       1.0  0.23307315037533924  0.4073971984269036  0.5942082995748998  1.0000
  C   C11       1.0  0.15771703051340002  0.4297272843352955  0.5512380903766203  1.0000
  N   N2        1.0  0.09713608291568651  0.44767901444650215  0.516693169542179  1.0000
  C   C12       1.0  0.2511455532220169  0.42451489941559206  0.7232584091561436  1.0000
  C   C13       1.0  0.3243124306813991  0.4028081161390902  0.765122799060916  1.0000
  C   C14       1.0  0.5204044297663245  0.3821904553936837  0.6421002450841964  1.0000
  H   H1        1.0  0.6618731806465972  0.2793986189861748  0.840186913928237  1.0000
  H   H2        1.0  0.5532580572944055  0.2058737870369436  0.9820632454560063  1.0000
  H   H3        1.0  0.42423750588151876  0.24247387394112851  0.9092023905763018  1.0000
  H   H4        1.0  0.4033782361281283  0.31516544849276085  0.4799467092000018  1.0000
  H   H5        1.0  0.2750455448801432  0.354591877422765  0.40702103696745806  1.0000
  H   H6        1.0  0.208742071931803  0.4549539662995483  0.7914620972125339  1.0000
  H   H7        1.0  0.3372105138532107  0.4182614282069004  0.8649754005287247  1.0000
  H   H8        1.0  0.5119251510498438  0.4329849851741221  0.5476021542684268  1.0000
  C   C15       1.0  0.9024304839395259  0.061547591905520393  0.5257094942204128  1.0000
  C   C16       1.0  0.9375948397560613  0.07087728872444465  0.401575139257327  1.0000
  C   C17       1.0  0.9545857537862201  0.9584521054389228  0.338154459958133  1.0000
  C   C18       1.0  0.937595411180238  0.8356406898636031  0.4015259762050616  1.0000
  C   C19       1.0  0.9025022644569587  0.8243435391134724  0.5257517179897326  1.0000
  C   C20       1.0  0.8849616665136045  0.937863502605742  0.5869091444241363  1.0000
  C   C21       1.0  0.9923574515283359  0.9681283217522622  0.20758794404283298  1.0000
  O   O1        1.0  0.038231995253988904  0.8812583229094081  0.18024758469224023  1.0000
  C   C22       1.0  0.9780889650399062  0.07629434120888878  0.10804538553364806  1.0000
  C   C23       1.0  0.9069535460734096  0.13395554795453646  0.09923846719262897  1.0000
  C   C24       1.0  0.8938048486490383  0.23528321310371814  0.0039428045990785865  1.0000
  N   N3        1.0  0.8214666604981669  0.29375762562891317  0.996095055719179  1.0000
  C   C25       1.0  0.9518382602650058  0.2785580399248204  0.9161171015093652  1.0000
  C   C26       1.0  0.022288229729043874  0.220714955224264  0.923099771803376  1.0000
  C   C27       1.0  0.03537854129156637  0.11981026987559029  0.01809393885127819  1.0000
  H   H9        1.0  0.837028851996928  0.25123975222103856  0.7610767710824786  1.0000
  H   H10       1.0  0.9525424674835489  0.16574559246250598  0.3546603691959591  1.0000
  H   H11       1.0  0.95115258341861  0.7487664735130574  0.3531996525590584  1.0000
  H   H12       1.0  0.857860000037943  0.9299200045506207  0.6825959765001595  1.0000
  H   H13       1.0  0.8364763896057507  0.5956864378685167  0.7606594371188984  1.0000
  H   H14       1.0  0.8614471602805207  0.09946212481346861  0.16531164898508233  1.0000
  H   H15       1.0  0.777805782149019  0.26225882168593984  0.06107116371805765  1.0000
  H   H16       1.0  0.8110562932596158  0.3691022920440148  0.9253404968498735  1.0000
  H   H17       1.0  0.9423828488560253  0.3566612813122092  0.8420695315705098  1.0000
  H   H18       1.0  0.06687451328515648  0.2541498387898429  0.8547369965001748  1.0000
  H   H19       1.0  0.09047655260666798  0.07650828382676678  0.022065093842981387  1.0000
  C   C28       1.0  0.902529615175952  0.44284594257052734  0.14436000591636433  1.0000
  C   C29       1.0  0.9262918011985757  0.31295758498236625  0.1521109863810537  1.0000
  C   C30       1.0  0.9390930101503131  0.24792158485663118  0.038773753354198526  1.0000
  C   C31       1.0  0.9262199742698849  0.31324899931109873  0.9168482863504375  1.0000
  C   C32       1.0  0.9024031178227211  0.44304513283484726  0.9071012425157909  1.0000
  C   C33       1.0  0.8908851295312641  0.5072010933729048  0.02143157426335196  1.0000
  C   C34       1.0  0.9634238165289204  0.11033240494737018  0.0468819436337613  1.0000
  O   O2        1.0  0.9402777631217663  0.03651987684363456  0.9637701923574702  1.0000
  C   C35       1.0  0.014017788808523335  0.05648353767009229  0.14917651565377854  1.0000
  C   C36       1.0  0.007953277144065574  0.9243641878861496  0.19472314882246322  1.0000
  C   C37       1.0  0.05598814589085599  0.87231929609453  0.29004781874586816  1.0000
  F   F1        1.0  0.04932348234749884  0.7450794585047598  0.3340182397397362  1.0000
  C   C38       1.0  0.11086437083218192  0.951282388290979  0.3399743486683726  1.0000
  C   C39       1.0  0.1180106639003975  0.08222246395234012  0.29431239484015737  1.0000
  C   C40       1.0  0.07012481041937302  0.1346827805417481  0.19905181168113817  1.0000
  H   H20       1.0  0.8565838126646795  0.6873209467061541  0.33715176027652083  1.0000
  H   H21       1.0  0.9340703161168876  0.2617516925868171  0.2465526148959325  1.0000
  H   H22       1.0  0.9355269116835938  0.2629212893063486  0.829387656257428  1.0000
  H   H23       1.0  0.8725659021424171  0.607335028565523  0.01465210687294105  1.0000
  H   H24       1.0  0.8926482543096006  0.4925536155829844  0.5759546375431954  1.0000
  H   H25       1.0  0.9656256902645588  0.8618145808668347  0.1573103536861591  1.0000
  H   H26       1.0  0.14807278055105155  0.9109742436899035  0.41366225276799784  1.0000
  H   H27       1.0  0.16092758591807121  0.14303849989196382  0.3323366668069885  1.0000
  H   H28       1.0  0.07752063295033151  0.23582989841836732  0.163453983852079  1.0000
  Zn  Zn1       1.0  0.8201465119909994  0.44094755627976023  0.5295518006972548  1.0000
  Zn  Zn2       1.0  0.9847790538027149  0.4449427549114362  0.5219091617998592  1.0000
  C   C41       1.0  0.9024248855678006  0.4378333290693768  0.7629265892779926  1.0000
  C   C42       1.0  0.9025024781412494  0.4480586645484026  0.2885344173195008  1.0000
  C   C43       1.0  0.9024856961735409  0.6801574057406892  0.5205687326255399  1.0000
  C   C44       1.0  0.9024416111995869  0.2057330260900434  0.5308923457323849  1.0000
  O   O3        1.0  0.9649705617990635  0.4513185924754153  0.3340203248905411  1.0000
  O   O4        1.0  0.9649090917771393  0.43760468455360413  0.7116397217205079  1.0000
  O   O5        1.0  0.9649573546639929  0.6332844209861039  0.5159340769249448  1.0000
  O   O6        1.0  0.9649222427512958  0.25563886394524205  0.5297258749194338  1.0000
  O   O7        1.0  0.8400032668614131  0.6302514458840016  0.5217350901789068  1.0000
  O   O8        1.0  0.8399550041294767  0.43457326987659517  0.7174406658152657  1.0000
  O   O9        1.0  0.8400164744560067  0.44828713213177984  0.3398197075728584  1.0000
  O   O10       1.0  0.839968155388148  0.2526073943373264  0.5355253549696488  1.0000
