data_image0
_chemical_formula_structural       NC8NC6H8C7OC6H10C7OC6OCH12Zn2C4O8
_chemical_formula_sum              "N2 C45 H30 O11 Zn2"
_cell_length_a       17.457602349358154
_cell_length_b       10.299379429549807
_cell_length_c       10.299362532796529
_cell_angle_alpha    85.55652278512687
_cell_angle_beta     92.89066602148195
_cell_angle_gamma    91.68701110263541

_space_group_name_H-M_alt    "P 1"
_space_group_IT_number       1

loop_
  _space_group_symop_operation_xyz
  'x, y, z'

loop_
  _atom_site_type_symbol
  _atom_site_label
  _atom_site_symmetry_multiplicity
  _atom_site_fract_x
  _atom_site_fract_y
  _atom_site_fract_z
  _atom_site_occupancy
  N   N1        1.0  0.7221773190971034  0.4524690968081637  0.6259261957809168  1.0000
  C   C1        1.0  0.6610987308610653  0.40653803225140317  0.6153283418665809  1.0000
  C   C2        1.0  0.5851143854347022  0.34940550568784867  0.602154151402484  1.0000
  C   C3        1.0  0.5265966323238861  0.3895935228425158  0.6770367528551471  1.0000
  C   C4        1.0  0.4520504194652597  0.33457956877085615  0.6644761772409327  1.0000
  C   C5        1.0  0.38994241491678433  0.3770122725134084  0.7437797422431232  1.0000
  C   C6        1.0  0.3153865885321713  0.3954637688031182  0.6880085424380229  1.0000
  C   C7        1.0  0.2568688535805159  0.4354678853326872  0.7629991704038022  1.0000
  C   C8        1.0  0.18087451066314691  0.4545245562270057  0.7050122541220416  1.0000
  N   N2        1.0  0.1197879756291272  0.469839739638088  0.6583909269753929  1.0000
  C   C9        1.0  0.272414856800841  0.4572638231050965  0.894269424958051  1.0000
  C   C10       1.0  0.3461860314665286  0.43920145852186576  0.950428074015012  1.0000
  C   C11       1.0  0.40469222940291577  0.3993775527132397  0.8758951007887572  1.0000
  C   C12       1.0  0.437310395479776  0.23869968243155837  0.5756003333683528  1.0000
  C   C13       1.0  0.49581648711309156  0.19879048840359204  0.5011176296094848  1.0000
  C   C14       1.0  0.5695780181895567  0.2539170004658591  0.5142281156910193  1.0000
  H   H1        1.0  0.5389494783027062  0.46481323099500593  0.7436386179788672  1.0000
  H   H2        1.0  0.3030258975723367  0.3804599709243415  0.5859890606287592  1.0000
  H   H3        1.0  0.2275624429417384  0.4881671086264252  0.9530936777057721  1.0000
  H   H4        1.0  0.3580329184825883  0.45576287999788145  0.052073683031407025  1.0000
  H   H5        1.0  0.46118541348003517  0.38439973361330515  0.922007802726573  1.0000
  H   H6        1.0  0.3808250666088909  0.19335830581551305  0.564966131668384  1.0000
  H   H7        1.0  0.48397723817999194  0.12468691686607114  0.43331699660784406  1.0000
  H   H8        1.0  0.6144305753702333  0.22214413465427585  0.4559153322877758  1.0000
  C   C15       1.0  0.920994709757998  0.0797630734881265  0.6423136112891614  1.0000
  C   C16       1.0  0.9675197082973931  0.07194263577887172  0.7578567130920968  1.0000
  C   C17       1.0  0.9902665545716857  0.9507278331054541  0.8169257668331895  1.0000
  C   C18       1.0  0.9674262798998718  0.8367163936003286  0.7575728054382156  1.0000
  C   C19       1.0  0.920977923797196  0.8425360730959648  0.6420153365390393  1.0000
  C   C20       1.0  0.8978649589642972  0.9645381965243673  0.5852395569138347  1.0000
  C   C21       1.0  0.040059667241372  0.9424157120484622  0.9381875099426913  1.0000
  O   O1        1.0  0.08873448645148208  0.8537596971751201  0.9545178442747109  1.0000
  C   C22       1.0  0.0346300403154709  0.03457708713812524  0.04092777146869431  1.0000
  C   C23       1.0  0.10026627375756969  0.06693213498411454  0.11784877665781679  1.0000
  C   C24       1.0  0.0955297630454417  0.15251619069570332  0.2159531923948812  1.0000
  C   C25       1.0  0.025254896094651258  0.20574883954946555  0.23897318200340345  1.0000
  C   C26       1.0  0.95950139153292  0.17308051556858195  0.1642866750262587  1.0000
  C   C27       1.0  0.9639297937250749  0.08756262427903905  0.06606943643485397  1.0000
  H   H9        1.0  0.8341671882075744  0.30197297330238304  0.42319519322929233  1.0000
  H   H10       1.0  0.9868251696909895  0.1603873499888211  0.80126951536641  1.0000
  H   H11       1.0  0.9853933212385032  0.74321376357648  0.8024765078799434  1.0000
  H   H12       1.0  0.8619980523390495  0.9697630873816188  0.4961639575436829  1.0000
  H   H13       1.0  0.9036684353176505  0.517387338643622  0.5970349377659772  1.0000
  H   H14       1.0  0.15530185775454153  0.02688464557600234  0.10129531787390278  1.0000
  H   H15       1.0  0.14639543106047292  0.17752579456334083  0.2742017883458244  1.0000
  H   H16       1.0  0.0216932035299362  0.27188798671216863  0.31502249058559584  1.0000
  H   H17       1.0  0.904959801237847  0.21358896854720344  0.1828802706195224  1.0000
  H   H18       1.0  0.9120050777965238  0.061822868655558416  0.010894078850231859  1.0000
  C   C28       1.0  0.9209264416082954  0.46102641205251516  0.2607927569813726  1.0000
  C   C29       1.0  0.8480999595349061  0.3991608208442252  0.2581570055094886  1.0000
  C   C30       1.0  0.8110375626346037  0.3692665111190552  0.13962857149967434  1.0000
  C   C31       1.0  0.8483160117642619  0.3993338268340145  0.022920282552298055  1.0000
  C   C32       1.0  0.921046198303351  0.4612727120901643  0.023536216313403857  1.0000
  C   C33       1.0  0.9568687419844852  0.4920145059820804  0.14297191212149696  1.0000
  C   C34       1.0  0.7345248073367256  0.3026225569780707  0.1392087898974268  1.0000
  O   O2        1.0  0.7188517195885736  0.22272669953111857  0.2338564834236061  1.0000
  C   C35       1.0  0.6757954180955528  0.32660956184969425  0.031488416699009036  1.0000
  C   C36       1.0  0.6698928102467123  0.449731322892424  0.9631050502076137  1.0000
  C   C37       1.0  0.613735802092988  0.4714589570745866  0.8628148566420122  1.0000
  C   C38       1.0  0.5621293211297367  0.37153449899926794  0.8295904170785198  1.0000
  C   C39       1.0  0.5672250803089024  0.2485710543697548  0.8988260454234447  1.0000
  C   C40       1.0  0.623375215924172  0.22671591353130993  0.9991881323712049  1.0000
  O   O3        1.0  0.5068990078507619  0.39828288466202344  0.728084987589952  1.0000
  C   C41       1.0  0.4509621529890036  0.30607274554306274  0.6841800897800865  1.0000
  H   H19       1.0  0.05848094437905593  0.5772810267701451  0.47308541916817837  1.0000
  H   H20       1.0  0.8196939997213187  0.37517759398075623  0.34838060428859774  1.0000
  H   H21       1.0  0.8208904055382251  0.3730541608800879  0.931636683694332  1.0000
  H   H22       1.0  0.012974977176373192  0.5397916725520828  0.14417986102607094  1.0000
  H   H23       1.0  0.9490757565618211  0.4845565407481829  0.6963470339838551  1.0000
  H   H24       1.0  0.7081320760523045  0.5296571084508717  0.9880210161161722  1.0000
  H   H25       1.0  0.6100782088372341  0.5667640254368524  0.8109154225518296  1.0000
  H   H26       1.0  0.5281045143096248  0.16929259476906133  0.8759346305431368  1.0000
  H   H27       1.0  0.6262874035626459  0.13119640150268497  0.05091358306320415  1.0000
  H   H28       1.0  0.41492402725775535  0.3531961963323764  0.6031352407508312  1.0000
  H   H29       1.0  0.4134990875588496  0.2722212228845875  0.7646834591379728  1.0000
  H   H30       1.0  0.4795638286530585  0.22199743657698812  0.647892786909912  1.0000
  Zn  Zn1       1.0  0.8369191669955002  0.4574784086152277  0.6353023158124711  1.0000
  Zn  Zn2       1.0  0.005046115384455652  0.4648197828145051  0.6490254437133918  1.0000
  C   C42       1.0  0.9210219535948775  0.4560521069981802  0.8793632393564916  1.0000
  C   C43       1.0  0.9209451647100652  0.46624780335686156  0.40496479685210396  1.0000
  C   C44       1.0  0.920976331017174  0.6983538880592839  0.6368961913500921  1.0000
  C   C45       1.0  0.9209907299630119  0.22394445941809082  0.6474319100250585  1.0000
  O   O4        1.0  0.9847547491914381  0.4707804971485774  0.45855810819588805  1.0000
  O   O5        1.0  0.9848168327108219  0.45709036645466417  0.8361850910922779  1.0000
  O   O6        1.0  0.9847791320153395  0.652752081865051  0.6403911635990585  1.0000
  O   O7        1.0  0.98479239250109  0.2751187884924031  0.6543519336273163  1.0000
  O   O8        1.0  0.8571728325053887  0.6471794004334908  0.6299758212086846  1.0000
  O   O9        1.0  0.8572105331521507  0.45151924539693167  0.8257696788454874  1.0000
  O   O10       1.0  0.8571484494396598  0.46520933033020206  0.44814113455878446  1.0000
  O   O11       1.0  0.8571860927616648  0.2695476124159757  0.6439350573621427  1.0000
