data_image0
_chemical_formula_structural       NC10NC3NH7C7OC3OC4H12C7OC3FC3H9Zn2C4O8
_chemical_formula_sum              "N3 C44 H28 O11 F1 Zn2"
_cell_length_a       19.210446455230148
_cell_length_b       10.299371110280156
_cell_length_c       10.29938172300155
_cell_angle_alpha    85.59389208423815
_cell_angle_beta     89.97418890370308
_cell_angle_gamma    89.9600477448761

_space_group_name_H-M_alt    "P 1"
_space_group_IT_number       1

loop_
  _space_group_symop_operation_xyz
  'x, y, z'

loop_
  _atom_site_type_symbol
  _atom_site_label
  _atom_site_symmetry_multiplicity
  _atom_site_fract_x
  _atom_site_fract_y
  _atom_site_fract_z
  _atom_site_occupancy
  N   N1        1.0  0.6558596804674409  0.4198267116126928  0.5678453970835418  1.0000
  C   C1        1.0  0.595631187953891  0.4220342610989276  0.568077345249729  1.0000
  C   C2        1.0  0.5208268188735791  0.424771218164228  0.5683647008405743  1.0000
  C   C3        1.0  0.4852184683961506  0.5410042218121245  0.5835185809763648  1.0000
  C   C4        1.0  0.4125530015943693  0.5411557448668007  0.5834660390566895  1.0000
  C   C5        1.0  0.3756600802972314  0.42548019886468524  0.56845144080875  1.0000
  C   C6        1.0  0.2983379200895873  0.42412370011818634  0.5683003573363203  1.0000
  C   C7        1.0  0.2605960445715768  0.5276780341901199  0.504976702640269  1.0000
  C   C8        1.0  0.187817651005955  0.5262757907196485  0.5048671199660439  1.0000
  C   C9        1.0  0.1517797383858093  0.4215767081900239  0.568030289108709  1.0000
  C   C10       1.0  0.0768501876477231  0.4202746062539453  0.5678929885698805  1.0000
  N   N2        1.0  0.0166123106540405  0.419227672097376  0.5677826337962177  1.0000
  C   C11       1.0  0.1887979644549855  0.3181480594021766  0.6313289811932825  1.0000
  C   C12       1.0  0.261578189981614  0.31927604958927014  0.631488709704406  1.0000
  C   C13       1.0  0.4138783228065119  0.31106750247459414  0.5535863840003385  1.0000
  N   N3        1.0  0.4846483393945532  0.3135124929679256  0.5537528333692052  1.0000
  H   H1        1.0  0.5133211674781581  0.6304398342596362  0.5955993883136612  1.0000
  H   H2        1.0  0.3852857214006092  0.6311735496544562  0.5969417695841996  1.0000
  H   H3        1.0  0.2873328732933478  0.6089184183196679  0.4540160020919266  1.0000
  H   H4        1.0  0.1596805842111476  0.6066887954736611  0.4552365012938129  1.0000
  H   H5        1.0  0.1614216771242027  0.23677164352302382  0.6808597661760858  1.0000
  H   H6        1.0  0.289070201978147  0.23898257253017285  0.6825570860500882  1.0000
  H   H7        1.0  0.3876113834997224  0.2201867743304169  0.5400640934599945  1.0000
  C   C14       1.0  0.8361924081584208  0.038155852146126046  0.5676992228661508  1.0000
  C   C15       1.0  0.828193054475936  0.047423184019668385  0.43171790299763213  1.0000
  C   C16       1.0  0.8233720838922808  0.9349117978003162  0.3633010109360282  1.0000
  C   C17       1.0  0.8282275581466855  0.812155322250323  0.43202897749179736  1.0000
  C   C18       1.0  0.8362862362916393  0.8008885764295909  0.5679400545570299  1.0000
  C   C19       1.0  0.8400397757828062  0.9144861699303952  0.6350264527532301  1.0000
  C   C20       1.0  0.8156512877830532  0.9445681786339474  0.21955786387953014  1.0000
  O   O1        1.0  0.8441956457661718  0.8594663521564383  0.15553108310954578  1.0000
  C   C21       1.0  0.775540610263245  0.05068649066698816  0.14845525753376254  1.0000
  C   C22       1.0  0.7950172198076653  0.0957830855416395  0.021311552983989346  1.0000
  C   C23       1.0  0.7573766929564145  0.19484189567998955  0.9519385251861419  1.0000
  O   O2        1.0  0.7796203712956516  0.23658150865722316  0.8258390313931914  1.0000
  C   C24       1.0  0.7464521259986086  0.33610176732464403  0.7444112484150911  1.0000
  C   C25       1.0  0.6989750705610875  0.24881197103080366  0.010435744703994887  1.0000
  C   C26       1.0  0.6787840407824133  0.20342635318371194  0.13606254132083873  1.0000
  C   C27       1.0  0.7165482136111225  0.10464845453613414  0.20468338325346802  1.0000
  H   H8        1.0  0.8523503034850369  0.22800506028069822  0.8240848582729101  1.0000
  H   H9        1.0  0.8264776301536425  0.14234751438302684  0.37868941902995434  1.0000
  H   H10       1.0  0.8250352194530802  0.7252873969567638  0.3793080133661213  1.0000
  H   H11       1.0  0.8462071393714201  0.9065379341229589  0.739858086631404  1.0000
  H   H12       1.0  0.839961043368379  0.4691121096071403  0.6200253632226009  1.0000
  H   H13       1.0  0.8400312092483698  0.05480122854034919  0.975931678825896  1.0000
  H   H14       1.0  0.7748623754045506  0.3491228360060117  0.6505370738929397  1.0000
  H   H15       1.0  0.7474703991138544  0.429568254519447  0.7914293023049992  1.0000
  H   H16       1.0  0.6919032817175651  0.30795418672607955  0.7246568677656655  1.0000
  H   H17       1.0  0.6687470307195282  0.3253489668562457  0.9595534315240304  1.0000
  H   H18       1.0  0.6335071563124605  0.24456975306539075  0.18022075055135534  1.0000
  H   H19       1.0  0.6991686033353273  0.06955259337365316  0.30106338585315773  1.0000
  C   C28       1.0  0.8362979065716363  0.4194209708911538  0.18645192046803905  1.0000
  C   C29       1.0  0.858310307143178  0.2889293746283088  0.1952681425952716  1.0000
  C   C30       1.0  0.8701690451610417  0.22356799945465866  0.08250604246552906  1.0000
  C   C31       1.0  0.8582437657399818  0.2892226205320989  0.9600021967093193  1.0000
  C   C32       1.0  0.8361807065344593  0.419623412078282  0.9491873602738492  1.0000
  C   C33       1.0  0.8255109157115308  0.4840716777436733  0.06300165520785228  1.0000
  C   C34       1.0  0.8927080299862088  0.08536151502478329  0.09170378964213821  1.0000
  O   O3        1.0  0.8712592212498481  0.012152698984077448  0.007503137049664543  1.0000
  C   C35       1.0  0.9395843651936782  0.03021032940504753  0.19632346055128624  1.0000
  C   C36       1.0  0.9339605130023251  0.8982582306160799  0.24155592112752555  1.0000
  C   C37       1.0  0.9784657542788733  0.8449769672849727  0.3390878482241939  1.0000
  F   F1        1.0  0.9722860010598973  0.7179194878223802  0.38271760154882184  1.0000
  C   C38       1.0  0.029314599679300057  0.9225164634046532  0.3915714357784976  1.0000
  C   C39       1.0  0.03594074314962503  0.0532614446311388  0.3462733617969167  1.0000
  C   C40       1.0  0.9915735880664511  0.10695425084535892  0.24881251655402137  1.0000
  H   H20       1.0  0.7937351943751083  0.665062914799943  0.37718224951743906  1.0000
  H   H21       1.0  0.865515721562063  0.23752671177937046  0.2900562526253003  1.0000
  H   H22       1.0  0.8668653840686754  0.23865859609034334  0.872958929588016  1.0000
  H   H23       1.0  0.8085406684050188  0.5846706741355081  0.05540094949239993  1.0000
  H   H24       1.0  0.8271440292594552  0.46937984339052674  0.6176024756801595  1.0000
  H   H25       1.0  0.8947392992422174  0.8368068157540326  0.20217037439760221  1.0000
  H   H26       1.0  0.06378891607482418  0.8812506094345093  0.46696911053152124  1.0000
  H   H27       1.0  0.07570794819744808  0.11296420757627335  0.38629718567793514  1.0000
  H   H28       1.0  0.9984298687612045  0.20790222644288114  0.21358247766015315  1.0000
  Zn  Zn1       1.0  0.759965094435842  0.4196503796636555  0.5678347829043966  1.0000
  Zn  Zn2       1.0  0.9125068778099933  0.4193934242547315  0.5678038803777721  1.0000
  C   C41       1.0  0.8362006890758337  0.41441146537354134  0.8050123792294499  1.0000
  C   C42       1.0  0.8362729491035126  0.42463397440277584  0.33062641169866924  1.0000
  C   C43       1.0  0.8362657069824196  0.6567144789272836  0.5627193629022149  1.0000
  C   C44       1.0  0.8362078789425129  0.18232940064255954  0.5729194967822304  1.0000
  O   O4        1.0  0.8941533842645996  0.4262803269865325  0.37900095886927976  1.0000
  O   O5        1.0  0.8940959378560415  0.41256910975196104  0.7566140036019893  1.0000
  O   O6        1.0  0.8941476600615479  0.6082318592094462  0.5609606792388941  1.0000
  O   O7        1.0  0.8941016100230176  0.2306175868811613  0.5746541858714926  1.0000
  O   O8        1.0  0.7783703101677948  0.6084262171263242  0.5609844774143911  1.0000
  O   O9        1.0  0.7783185881616793  0.41276502796441084  0.7566377330248748  1.0000
  O   O10       1.0  0.7783760348508381  0.42647619952816207  0.37902312688211715  1.0000
  O   O11       1.0  0.7783242605903088  0.23081345015977517  0.5746764512489273  1.0000
