data_image0
_chemical_formula_structural       NC8NC6H8C7OC3FC3H9C7OC6H10Zn2C4O8
_chemical_formula_sum              "N2 C44 H27 O10 F1 Zn2"
_cell_length_a       17.457602349358154
_cell_length_b       10.29937835083307
_cell_length_c       10.299382801718286
_cell_angle_alpha    85.56292937340861
_cell_angle_beta     92.85617812018302
_cell_angle_gamma    91.70902404556999

_space_group_name_H-M_alt    "P 1"
_space_group_IT_number       1

loop_
  _space_group_symop_operation_xyz
  'x, y, z'

loop_
  _atom_site_type_symbol
  _atom_site_label
  _atom_site_symmetry_multiplicity
  _atom_site_fract_x
  _atom_site_fract_y
  _atom_site_fract_z
  _atom_site_occupancy
  N   N1        1.0  0.7230085989982723  0.45264952574715855  0.6263265140141803  1.0000
  C   C1        1.0  0.6619230571983454  0.40672030530399006  0.6157171664911616  1.0000
  C   C2        1.0  0.5859300594636142  0.34959007143992205  0.6025286792313791  1.0000
  C   C3        1.0  0.5273949216245108  0.3897673105666868  0.6774199223359261  1.0000
  C   C4        1.0  0.4528403325538098  0.3347555467040435  0.6648455773782724  1.0000
  C   C5        1.0  0.3907138869746055  0.3771768371125346  0.7441582615670865  1.0000
  C   C6        1.0  0.3161823263910988  0.39563597747529866  0.688392973473912  1.0000
  C   C7        1.0  0.2576471250506999  0.4356293023441886  0.7633921938284534  1.0000
  C   C8        1.0  0.1816779820686431  0.45469392201337966  0.7054113914869222  1.0000
  N   N2        1.0  0.12061170623524921  0.4700154962685432  0.6587949783166598  1.0000
  C   C9        1.0  0.2731512711335706  0.45740673143781496  0.894665180193088  1.0000
  C   C10       1.0  0.3468981324342287  0.439336665579932  0.9508180084939681  1.0000
  C   C11       1.0  0.4054216752107734  0.39952348607868404  0.8762764790017734  1.0000
  C   C12       1.0  0.438109670972106  0.23888883408824735  0.5759471803931377  1.0000
  C   C13       1.0  0.4966330695129492  0.198990360021444  0.5014558975177457  1.0000
  C   C14       1.0  0.5704028064270529  0.25411460417078846  0.5145801698103312  1.0000
  H   H1        1.0  0.5397415397256509  0.4649771198969812  0.7440395481785094  1.0000
  H   H2        1.0  0.3038546183344792  0.38064654868273196  0.5863718625116623  1.0000
  H   H3        1.0  0.22828504472999533  0.4883015555260475  0.9534960513096125  1.0000
  H   H4        1.0  0.3587125346503961  0.4558837578560737  0.05246565224947841  1.0000
  H   H5        1.0  0.46189486094214927  0.3845393445082619  0.9223843640307376  1.0000
  H   H6        1.0  0.38161753948210003  0.1935493019924106  0.5653016363635706  1.0000
  H   H7        1.0  0.4848007383532262  0.12489684591188555  0.433637814499116  1.0000
  H   H8        1.0  0.6152687897810664  0.22235013523674274  0.45626053508167064  1.0000
  C   C15       1.0  0.9217329423825671  0.07994416534775217  0.6426184571970666  1.0000
  C   C16       1.0  0.8416898658997701  0.07645295413012732  0.6200572808137674  1.0000
  C   C17       1.0  0.801220644160522  0.957400267758032  0.6101474223870533  1.0000
  C   C18       1.0  0.8418774592625472  0.8412171458747586  0.6200794750430385  1.0000
  C   C19       1.0  0.9218946754115962  0.8427111815894129  0.6425148704598742  1.0000
  C   C20       1.0  0.961335691006675  0.9625735135920268  0.6539945410299894  1.0000
  C   C21       1.0  0.7167957567720925  0.9536800730748577  0.5849589394246979  1.0000
  O   O1        1.0  0.6871756806552797  0.867684081880098  0.5158790054192943  1.0000
  C   C22       1.0  0.6659730776200935  0.04741808473446785  0.6381477739674337  1.0000
  C   C23       1.0  0.5976446013403167  0.08442051216366764  0.5687870521596354  1.0000
  C   C24       1.0  0.548898632175957  0.17155795654481643  0.6188674458411676  1.0000
  F   F1        1.0  0.4834504755720491  0.20737844956789875  0.5508032948287904  1.0000
  C   C25       1.0  0.5675479220621283  0.2216903735808422  0.738995685344211  1.0000
  C   C26       1.0  0.6347747421743019  0.18438769778806186  0.8094810109223365  1.0000
  C   C27       1.0  0.683679266523912  0.09732885853392514  0.7598182779603275  1.0000
  H   H9        1.0  0.0729179906795705  0.294012706665036  0.683208936592463  1.0000
  H   H10       1.0  0.8108224958801801  0.16661463891713835  0.6087234826747101  1.0000
  H   H11       1.0  0.810820012722881  0.749390998242725  0.6114909862810174  1.0000
  H   H12       1.0  0.023042954797922732  0.9644609745387613  0.6713867893258914  1.0000
  H   H13       1.0  0.952706061118533  0.5159162611623378  0.6500433713273606  1.0000
  H   H14       1.0  0.5823774218792637  0.04673543709674077  0.47538175691455775  1.0000
  H   H15       1.0  0.5297921452820196  0.2890368016024487  0.7777915982830141  1.0000
  H   H16       1.0  0.6488557992138284  0.2225081682712502  0.9030030175660886  1.0000
  H   H17       1.0  0.7347979106343676  0.06800909980061864  0.8171449299198412  1.0000
  C   C28       1.0  0.9218903326091644  0.4612577756638636  0.2612031330357645  1.0000
  C   C29       1.0  0.002490357432120449  0.4656416086005988  0.2664811851373179  1.0000
  C   C30       1.0  0.04314240874942721  0.4663645374725125  0.15208537149792556  1.0000
  C   C31       1.0  0.0023034092972711306  0.4656614812374318  0.03122034587621214  1.0000
  C   C32       1.0  0.9217372698506872  0.46139755194860643  0.02393014558339268  1.0000
  C   C33       1.0  0.8819979988091615  0.45887569393103655  0.1395255724422737  1.0000
  C   C34       1.0  0.1282458517034042  0.47237731759242196  0.1574061189498408  1.0000
  O   O2        1.0  0.16206215763744902  0.5345656616821424  0.06563142541575995  1.0000
  C   C35       1.0  0.17498657525830819  0.4078328667671467  0.26673934936665433  1.0000
  C   C36       1.0  0.24710841793201244  0.46144476130933954  0.30372254776095975  1.0000
  C   C37       1.0  0.2919787865395218  0.4004680846163182  0.40565073047901423  1.0000
  C   C38       1.0  0.2656666612539984  0.28501060026803704  0.47088350888436015  1.0000
  C   C39       1.0  0.19456184960758383  0.2299961038883076  0.4339605643743967  1.0000
  C   C40       1.0  0.14947284685713047  0.29058450350865095  0.3321166465746479  1.0000
  H   H18       1.0  0.7697864470644653  0.45499662197164636  0.45840692893514756  1.0000
  H   H19       1.0  0.033745995500547465  0.4699573428677928  0.3596319292499115  1.0000
  H   H20       1.0  0.03356633376839668  0.4671982952042899  0.9428217835483097  1.0000
  H   H21       1.0  0.8198614526622079  0.4554968877860561  0.13465235653950391  1.0000
  H   H22       1.0  0.8907875468546707  0.46086457166898387  0.6935876113736175  1.0000
  H   H23       1.0  0.26842702963768406  0.5510525639545181  0.25451438175713204  1.0000
  H   H24       1.0  0.34721243458414275  0.44276588199778066  0.43402772400088785  1.0000
  H   H25       1.0  0.3005082027384389  0.2379031015698707  0.5496795269778918  1.0000
  H   H26       1.0  0.17449193574139255  0.13998691268514407  0.4838995314836114  1.0000
  H   H27       1.0  0.09515972937284656  0.24504460821902363  0.3036291053861866  1.0000
  Zn  Zn1       1.0  0.8377482648362858  0.45765748820687535  0.6357037102900731  1.0000
  Zn  Zn2       1.0  0.005872021756015311  0.4649968873908572  0.6494284158642112  1.0000
  C   C41       1.0  0.9217634164635524  0.45619710704896077  0.8797590067907746  1.0000
  C   C42       1.0  0.9218587063568657  0.46645898742181857  0.4053733964789661  1.0000
  C   C43       1.0  0.9218612056448146  0.6985308372105172  0.6373590256987545  1.0000
  C   C44       1.0  0.9217608594619395  0.2241236943858711  0.6477734423372707  1.0000
  O   O3        1.0  0.9856501806628952  0.4709841593099786  0.4589667089101106  1.0000
  O   O4        1.0  0.9855739834079095  0.45724138947801696  0.8365820546146392  1.0000
  O   O5        1.0  0.9856520890548709  0.6529289040125466  0.6408422844658783  1.0000
  O   O6        1.0  0.9855720176681909  0.27529665154386485  0.6547063770010051  1.0000
  O   O7        1.0  0.8580482115517251  0.6473577215507036  0.6304257444628796  1.0000
  O   O8        1.0  0.8579701062460422  0.4516717673874009  0.826165445154956  1.0000
  O   O9        1.0  0.8580463038557303  0.46541449167717963  0.44854853808210615  1.0000
  O   O10       1.0  0.8579681408363832  0.2697269746394859  0.6442883035404678  1.0000
