data_image0
_chemical_formula_structural       NC10NC3NH7C12SCH12C11NCOCH11Zn2C4O8
_chemical_formula_sum              "N4 C43 H30 S1 O9 Zn2"
_cell_length_a       19.210446455230148
_cell_length_b       10.299776766347529
_cell_length_c       10.299158637457994
_cell_angle_alpha    85.5824420436923
_cell_angle_beta     89.9723271520695
_cell_angle_gamma    89.9285037425463

_space_group_name_H-M_alt    "P 1"
_space_group_IT_number       1

loop_
  _space_group_symop_operation_xyz
  'x, y, z'

loop_
  _atom_site_type_symbol
  _atom_site_label
  _atom_site_symmetry_multiplicity
  _atom_site_fract_x
  _atom_site_fract_y
  _atom_site_fract_z
  _atom_site_occupancy
  N   N1        1.0  0.6554657213369133  0.41966560408639864  0.5674036189871368  1.0000
  C   C1        1.0  0.5952365733083599  0.42187314058165093  0.5676349152635383  1.0000
  C   C2        1.0  0.5204313915133021  0.42461008151948754  0.5679214626273414  1.0000
  C   C3        1.0  0.4847884751073315  0.5408426852731361  0.5830410609896843  1.0000
  C   C4        1.0  0.4121229645089107  0.5409942008228656  0.5829884733509756  1.0000
  C   C5        1.0  0.3752644421964123  0.4253190592307647  0.5680079934076605  1.0000
  C   C6        1.0  0.2979426849403205  0.42396256764054535  0.5678573103878217  1.0000
  C   C7        1.0  0.2601713571140673  0.5275091244279024  0.5045020201248049  1.0000
  C   C8        1.0  0.1873933792739242  0.5261068928560406  0.5043928520705643  1.0000
  C   C9        1.0  0.15138525958931073  0.4214155904637993  0.5675879942524822  1.0000
  C   C10       1.0  0.0764560955090098  0.42011349614317517  0.5674510782176583  1.0000
  N   N2        1.0  0.016218529400620706  0.4190665681135073  0.5673410325988297  1.0000
  C   C11       1.0  0.1884329013127667  0.3179947145339468  0.6309182842459824  1.0000
  C   C12       1.0  0.2612127911707972  0.3191227020638123  0.6310776802478226  1.0000
  C   C13       1.0  0.4135167084021024  0.310906761447048  0.5531766822239705  1.0000
  N   N3        1.0  0.48428600055018617  0.3133517288152258  0.553342408299585  1.0000
  H   H1        1.0  0.5128645700433216  0.6302780306538516  0.5950954961645385  1.0000
  H   H2        1.0  0.384828883972646  0.6310118639538969  0.596437678774314  1.0000
  H   H3        1.0  0.2868851023438454  0.6087432832833676  0.45351648261616573  1.0000
  H   H4        1.0  0.1592334498964758  0.6065138140841306  0.4547376609279672  1.0000
  H   H5        1.0  0.1610797626178765  0.23662438798469074  0.6804739262144548  1.0000
  H   H6        1.0  0.2887276053393975  0.2388354454969774  0.682170614048422  1.0000
  H   H7        1.0  0.38727682490516885  0.22002618429829135  0.539681172236899  1.0000
  C   C14       1.0  0.8359110847012936  0.03800085031394551  0.5673707208381658  1.0000
  C   C15       1.0  0.840070623242514  0.02648078602849768  0.703884583100238  1.0000
  C   C16       1.0  0.8421112743195439  0.9035049699449428  0.7730626139461276  1.0000
  C   C17       1.0  0.8399375171138344  0.7911932360649383  0.7038997965979252  1.0000
  C   C18       1.0  0.8357798378075121  0.8007213494857605  0.5673851846274252  1.0000
  C   C19       1.0  0.8337895036484202  0.9245642390279981  0.49988481746848246  1.0000
  C   C20       1.0  0.8465039255779787  0.8923819606395794  0.9174788785675148  1.0000
  C   C21       1.0  0.8066522698830082  0.7990140677237493  0.9915288555356384  1.0000
  C   C22       1.0  0.8108071752582494  0.7887804342441502  0.12743812649845  1.0000
  C   C23       1.0  0.8546398709970978  0.8716370573357105  0.19110413208425725  1.0000
  C   C24       1.0  0.8946574073449934  0.9644313769489945  0.11842719810345148  1.0000
  C   C25       1.0  0.8906045746804067  0.9750147259996272  0.982507494377079  1.0000
  S   S1        1.0  0.8600479477782936  0.8580452325045604  0.36549441197449395  1.0000
  C   C26       1.0  0.7900959295409785  0.9742301582361527  0.3850353606368432  1.0000
  H   H8        1.0  0.8343534972651153  0.36984395423440974  0.5153527376892295  1.0000
  H   H9        1.0  0.8407730600946851  0.11332955658840403  0.7568430600389209  1.0000
  H   H10       1.0  0.8424549917677093  0.6961941154060035  0.7566618212989091  1.0000
  H   H11       1.0  0.8305810724574134  0.9326829897186292  0.3945701771988191  1.0000
  H   H12       1.0  0.8341608197353739  0.47689828291447567  0.5153718779230598  1.0000
  H   H13       1.0  0.7716190793856863  0.73509138284114  0.9444205669843337  1.0000
  H   H14       1.0  0.7796758091111369  0.7167896934883042  0.18316530539805187  1.0000
  H   H15       1.0  0.9289494736612739  0.028411734055794547  0.1671245577665209  1.0000
  H   H16       1.0  0.9226142549859648  0.04663556103598721  0.928193212950245  1.0000
  H   H17       1.0  0.8040392291211891  0.07051929941037094  0.33615503731110863  1.0000
  H   H18       1.0  0.7820119374087271  0.9849604803895948  0.49031657162530046  1.0000
  H   H19       1.0  0.7411211432376168  0.938763967192064  0.3429215559790171  1.0000
  C   C27       1.0  0.8359107353427537  0.4192230284578147  0.1860048354245798  1.0000
  C   C28       1.0  0.8375045492462885  0.5559222861482236  0.1746935989976095  1.0000
  C   C29       1.0  0.8382579773703622  0.6253706477867296  0.0518010254510859  1.0000
  C   C30       1.0  0.8373712325031452  0.5562823736960205  0.9393821503446702  1.0000
  C   C31       1.0  0.8357801655721945  0.4194992033881013  0.9487510785572781  1.0000
  C   C32       1.0  0.8350627574012445  0.35181057339711996  0.07245032508000504  1.0000
  C   C33       1.0  0.83994487109867  0.7699816867532652  0.04080866371248759  1.0000
  C   C34       1.0  0.8826577086130505  0.8377439951611467  0.12336991833266686  1.0000
  C   C35       1.0  0.8436041564756241  0.04488275494414928  0.018753505231479787  1.0000
  C   C36       1.0  0.8000622856240919  0.9774822075406404  0.9379754806237806  1.0000
  C   C37       1.0  0.7984977302970033  0.8414234642239794  0.9481897397183694  1.0000
  N   N4        1.0  0.8433142247173038  0.18492782103193184  0.0075208244593234505  1.0000
  C   C38       1.0  0.9029400159869188  0.26381592245341823  0.03074353942604779  1.0000
  O   O1        1.0  0.9629650437374045  0.21430407725428413  0.039248325438487656  1.0000
  C   C39       1.0  0.8947499620424035  0.407643244265182  0.035350238442479316  1.0000
  H   H20       1.0  0.8371911662608467  0.6087395298260121  0.2616455067217003  1.0000
  H   H21       1.0  0.8388712215846297  0.609292959652641  0.8444112837030402  1.0000
  H   H22       1.0  0.8338357944015028  0.2463712382214056  0.08046004845211874  1.0000
  H   H23       1.0  0.833199702256243  0.16131204598161308  0.7591421505343261  1.0000
  H   H24       1.0  0.9152460816480201  0.7854633598494185  0.19555581760212595  1.0000
  H   H25       1.0  0.7674935819083893  0.03063780883469925  0.8663588850524908  1.0000
  H   H26       1.0  0.764104629017232  0.7920947022940698  0.8848474981820313  1.0000
  H   H27       1.0  0.7981830051579476  0.23245728512582262  0.9725828174166815  1.0000
  H   H28       1.0  0.8457996621808612  0.42943898825234234  0.08677694311799033  1.0000
  H   H29       1.0  0.8928704095330169  0.45431324329170625  0.9346326513290087  1.0000
  H   H30       1.0  0.939152534712984  0.448336752983447  0.08799806652802178  1.0000
  Zn  Zn1       1.0  0.7595711875273934  0.4194892739394194  0.5673930569914563  1.0000
  Zn  Zn2       1.0  0.9121130472707542  0.41923231966550073  0.5673622302882564  1.0000
  C   C40       1.0  0.8358041814594795  0.4142733542628784  0.8045755833262442  1.0000
  C   C41       1.0  0.8358817187871969  0.4244498751860719  0.3301798311157189  1.0000
  C   C42       1.0  0.835801930623194  0.6565490779194625  0.5622072046650728  1.0000
  C   C43       1.0  0.8358839178282919  0.1821725913546728  0.5725482789972578  1.0000
  O   O2        1.0  0.893760822335211  0.42610087420119336  0.3785545780440305  1.0000
  O   O3        1.0  0.8937008201109174  0.41242635305094494  0.7561770657747917  1.0000
  O   O4        1.0  0.8936982219317198  0.6080670657017772  0.5604628853926783  1.0000
  O   O5        1.0  0.8937633684772752  0.23046017089292056  0.574268661061101  1.0000
  O   O6        1.0  0.7779208142658228  0.608261422801097  0.5604866262222998  1.0000
  O   O7        1.0  0.777923412185162  0.4126222704141771  0.7562007373877349  1.0000
  O   O8        1.0  0.7779834147308331  0.4262967457435098  0.37857668823826107  1.0000
  O   O9        1.0  0.7779859608549815  0.23065603318177505  0.5742908686240633  1.0000
