data_image0
_chemical_formula_structural       NC9NC5H8C6FH5C7H8Zn2C4O8
_chemical_formula_sum              "N2 C31 H21 F1 Zn2 O8"
_cell_length_a       17.807436237873137
_cell_length_b       9.275642734913903
_cell_length_c       9.274345330872308
_cell_angle_alpha    85.0458555401147
_cell_angle_beta     88.93938532988027
_cell_angle_gamma    88.99238798493903

_space_group_name_H-M_alt    "P 1"
_space_group_IT_number       1

loop_
  _space_group_symop_operation_xyz
  'x, y, z'

loop_
  _atom_site_type_symbol
  _atom_site_label
  _atom_site_symmetry_multiplicity
  _atom_site_fract_x
  _atom_site_fract_y
  _atom_site_fract_z
  _atom_site_occupancy
  N   N1        1.0  0.7223688378676827  0.552734435066204  0.39408923179804767  1.0000
  C   C1        1.0  0.6616164045515989  0.5137552377479164  0.3818979115691704  1.0000
  C   C2        1.0  0.5860470548759188  0.46526940903882785  0.36673323283087367  1.0000
  C   C3        1.0  0.5679930442761435  0.386847599845103  0.25016003951002896  1.0000
  C   C4        1.0  0.4946188033814062  0.33964848965567124  0.2353444741084507  1.0000
  C   C5        1.0  0.4382476990198624  0.37045229394169343  0.3370666820616429  1.0000
  C   C6        1.0  0.3602701264254594  0.32041870599375644  0.32141259014936996  1.0000
  C   C7        1.0  0.2984754207801014  0.4109762311555156  0.35010014674228085  1.0000
  C   C8        1.0  0.22495757555967758  0.3635515788426189  0.3353001329353039  1.0000
  C   C9        1.0  0.1621275500018498  0.45709424449045905  0.3643875141080821  1.0000
  N   N2        1.0  0.1116251653979517  0.5322960669703702  0.38777297117271026  1.0000
  C   C10       1.0  0.2126494324483201  0.22528318140472625  0.2917848309490001  1.0000
  C   C11       1.0  0.2735867215947732  0.1347103457483838  0.26308797411408635  1.0000
  C   C12       1.0  0.3469836414001816  0.1816986233190927  0.27766357056867075  1.0000
  C   C13       1.0  0.45699514097152005  0.4494211737457791  0.4538826719899904  1.0000
  C   C14       1.0  0.5304217932826614  0.49641018095481204  0.46852557982095233  1.0000
  H   H1        1.0  0.6105737836476547  0.3624761030602799  0.17050026016391429  1.0000
  H   H2        1.0  0.48175233639372567  0.2807323042090126  0.14328230289665564  1.0000
  H   H3        1.0  0.30743707336576165  0.518950485900735  0.3820261353069784  1.0000
  H   H4        1.0  0.1560246063723526  0.18758134485231426  0.28006835318350787  1.0000
  H   H5        1.0  0.2639371293762378  0.02765656255860471  0.2298265025861452  1.0000
  H   H6        1.0  0.3933094178723204  0.10886092280676163  0.2566064509231858  1.0000
  H   H7        1.0  0.4151221667134542  0.4731834645064559  0.5349820178951157  1.0000
  H   H8        1.0  0.5438287415146108  0.5566901754151914  0.5594280491889883  1.0000
  C   C15       1.0  0.9146753926666367  0.1190884505217371  0.39158935259000915  1.0000
  C   C16       1.0  0.9006652300491659  0.20413458986221777  0.26143859106704553  1.0000
  C   C17       1.0  0.8937383503390843  0.1402155292933136  0.13161809469749114  1.0000
  C   C18       1.0  0.9007747562101841  0.9905694779714387  0.12965277168857492  1.0000
  C   C19       1.0  0.913435570263762  0.9040201481480241  0.2578065443257507  1.0000
  C   C20       1.0  0.9193256898012861  0.9659305153930255  0.3902852603910923  1.0000
  F   F1        1.0  0.881060097308116  0.22393592853734368  0.00698872693225239  1.0000
  H   H9        1.0  0.9909848659195489  0.19176079501368662  0.7127142388775933  1.0000
  H   H10       1.0  0.8968376608078997  0.32097507333590936  0.25965366007838053  1.0000
  H   H11       1.0  0.895699525084937  0.9411469770159748  0.028800505241141312  1.0000
  H   H12       1.0  0.9168436038476105  0.7877116320155509  0.253784813259261  1.0000
  H   H13       1.0  0.967694481666293  0.6642917961787433  0.6083709373877795  1.0000
  C   C21       1.0  0.918717481580302  0.5456623549516098  0.9671022965637527  1.0000
  C   C22       1.0  0.8745529952932024  0.649575463383079  0.03293114825931709  1.0000
  C   C23       1.0  0.8258343610454129  0.7421285755940759  0.9515575254344726  1.0000
  C   C24       1.0  0.8195476149272589  0.7318483306773673  0.802730717515904  1.0000
  C   C25       1.0  0.8648989988227918  0.631928204766389  0.7348724389711676  1.0000
  C   C26       1.0  0.9152835609153132  0.539356630810641  0.8147723008097058  1.0000
  C   C27       1.0  0.7683248741986101  0.8336197158967767  0.7148893638056217  1.0000
  H   H14       1.0  0.0032206353040638  0.22706926166369643  0.09452321613150949  1.0000
  H   H15       1.0  0.8765079638452449  0.6572125687177268  0.14870519314507424  1.0000
  H   H16       1.0  0.7923535769445342  0.82093244360345  0.005151260276124114  1.0000
  H   H17       1.0  0.8620374310220382  0.6287900042135088  0.6185315832719263  1.0000
  H   H18       1.0  0.9749272577919016  0.3277054373434125  0.5502115209302025  1.0000
  H   H19       1.0  0.7995481809448289  0.9321222247856209  0.6751134672929808  1.0000
  H   H20       1.0  0.7191960613663663  0.8655791199838286  0.7812188589344045  1.0000
  H   H21       1.0  0.7469309727645496  0.7814417936039757  0.6207122074393325  1.0000
  Zn  Zn1       1.0  0.8346997494588801  0.5468324539927032  0.39227484847747696  1.0000
  Zn  Zn2       1.0  0.9992941229998246  0.5381862061521423  0.38959923806459756  1.0000
  C   C28       1.0  0.9158994437055727  0.5348043878556401  0.6545534201542724  1.0000
  C   C29       1.0  0.9180962355352194  0.5502159961464836  0.12732077602865877  1.0000
  C   C30       1.0  0.9184661035462589  0.8059023304552639  0.38478040376523603  1.0000
  C   C31       1.0  0.915529509705243  0.27911632355083893  0.39709387294689297  1.0000
  O   O1        1.0  0.9803504121118466  0.5484567431705059  0.18007619083033166  1.0000
  O   O2        1.0  0.9785685839017689  0.5300002541047992  0.5997668651592603  1.0000
  O   O3        1.0  0.9806403460762931  0.7489153043237184  0.38192325711550534  1.0000
  O   O4        1.0  0.9782785942674411  0.3295417070217397  0.3979196915536968  1.0000
  O   O5        1.0  0.8557152220233213  0.7554769560752717  0.38395439589383784  1.0000
  O   O6        1.0  0.8536434696701451  0.5365636388045387  0.6017979243138551  1.0000
  O   O7        1.0  0.8554253046837887  0.5550200905292709  0.18210551479607015  1.0000
  O   O8        1.0  0.8533534863413222  0.33610504326251767  0.39994912374528546  1.0000
