data_image0
_chemical_formula_structural       NC11NC3H8C12SCH12C12NH11Zn2C4O8
_chemical_formula_sum              "N3 C43 H31 S1 Zn2 O8"
_cell_length_a       17.807433833752565
_cell_length_b       10.299776766347529
_cell_length_c       10.299774167527174
_cell_angle_alpha    85.57893362728709
_cell_angle_beta     88.5175958409119
_cell_angle_gamma    90.66624570658541

_space_group_name_H-M_alt    "P 1"
_space_group_IT_number       1

loop_
  _space_group_symop_operation_xyz
  'x, y, z'

loop_
  _atom_site_type_symbol
  _atom_site_label
  _atom_site_symmetry_multiplicity
  _atom_site_fract_x
  _atom_site_fract_y
  _atom_site_fract_z
  _atom_site_occupancy
  N   N1        1.0  0.7072422434621181  0.4380178841720601  0.5347837120240009  1.0000
  C   C1        1.0  0.6564248412890499  0.4033114719707999  0.6013414551662044  1.0000
  C   C2        1.0  0.5932028673876817  0.36013955509880496  0.6841307938708157  1.0000
  C   C3        1.0  0.6049337214517435  0.296626784307505  0.8068407399296184  1.0000
  C   C4        1.0  0.543618979013502  0.25513393714042  0.8873463277879474  1.0000
  C   C5        1.0  0.4704190509377059  0.2768407874055711  0.8457827217616873  1.0000
  C   C6        1.0  0.457711405100544  0.3405079706461225  0.722612606965914  1.0000
  C   C7        1.0  0.3799431937613107  0.3635440936758964  0.6782685378459019  1.0000
  C   C8        1.0  0.361171262746002  0.34663374568032634  0.5486936672820804  1.0000
  C   C9        1.0  0.2879414022294508  0.3683018555610957  0.5070859902391625  1.0000
  C   C10       1.0  0.23254039376436234  0.4071985923375647  0.594232961973695  1.0000
  C   C11       1.0  0.1571737791865508  0.42952475244956106  0.551264082836894  1.0000
  N   N2        1.0  0.0965843946105322  0.4474733265096871  0.5167202312760211  1.0000
  C   C12       1.0  0.25062075714626353  0.42431935623454065  0.7232767325352019  1.0000
  C   C13       1.0  0.32379784563070446  0.4026163926823525  0.7651398252521444  1.0000
  C   C14       1.0  0.5198834591915872  0.38199625782720603  0.6421234339631565  1.0000
  H   H1        1.0  0.6614005481818077  0.27922250357996004  0.8402039673223802  1.0000
  H   H2        1.0  0.5528200187456253  0.20571061250766148  0.9820759016764385  1.0000
  H   H3        1.0  0.42378202582956315  0.2423041737289224  0.9092173372453436  1.0000
  H   H4        1.0  0.4028600006428102  0.3149721211403256  0.47997913083923854  1.0000
  H   H5        1.0  0.2745090705428472  0.35439172894281773  0.4070556732829858  1.0000
  H   H6        1.0  0.20821549647161558  0.4547578240854155  0.7914764745868245  1.0000
  H   H7        1.0  0.3367014702340129  0.4180718457179299  0.8649874603909341  1.0000
  H   H8        1.0  0.5113806288128524  0.4327819792573143  0.5476282211653851  1.0000
  C   C15       1.0  0.901987744374814  0.06138227328751286  0.5257469005604631  1.0000
  C   C16       1.0  0.906492986831077  0.04997013546518291  0.6620449460125912  1.0000
  C   C17       1.0  0.9087034981708692  0.9270471383636727  0.7311169646319808  1.0000
  C   C18       1.0  0.9063493339452444  0.8146788748470346  0.6620668003578154  1.0000
  C   C19       1.0  0.9018460979784416  0.8240991136668915  0.5257679124699932  1.0000
  C   C20       1.0  0.8996900885455986  0.9478904882459123  0.4583709452632878  1.0000
  C   C21       1.0  0.9134612572299217  0.9160380892771313  0.8753053021986295  1.0000
  C   C22       1.0  0.8704601054498222  0.821555161270887  0.9513393265766751  1.0000
  C   C23       1.0  0.8749602764214363  0.8114293605676783  0.08703304851145743  1.0000
  C   C24       1.0  0.9222741677638882  0.8955038998605436  0.1485080238851877  1.0000
  C   C25       1.0  0.9654545076678323  0.9894177972845333  0.07383868222543943  1.0000
  C   C26       1.0  0.9610644973546324  0.9998961590096127  0.9381294349047227  1.0000
  S   S1        1.0  0.9281313510930359  0.8820525787171266  0.3226178944476965  1.0000
  C   C27       1.0  0.8526379944125002  0.9962867462674071  0.34564814651416664  1.0000
  H   H9        1.0  0.9003005983363657  0.39318501558184926  0.4738097869202335  1.0000
  H   H10       1.0  0.9072573230007325  0.13683537886010105  0.714965167069082  1.0000
  H   H11       1.0  0.9090725249999376  0.7197468249376215  0.7147000137825565  1.0000
  H   H12       1.0  0.8962149992004996  0.9559259915237952  0.35322277473787933  1.0000
  H   H13       1.0  0.900092653528726  0.5002339730796994  0.47383854027504585  1.0000
  H   H14       1.0  0.8326450210476193  0.7566588380114544  0.9059819857520571  1.0000
  H   H15       1.0  0.8413683336087916  0.7385676995459591  0.1443102563196157  1.0000
  H   H16       1.0  0.002469921419751443  0.054351043952706395  0.12082197880842048  1.0000
  H   H17       1.0  0.995604526235211  0.07241231072561359  0.8822212126733963  1.0000
  H   H18       1.0  0.8676805367079498  0.09296736265210148  0.296075035004272  1.0000
  H   H19       1.0  0.8439257415663542  0.0067855899022502  0.4513263624103103  1.0000
  H   H20       1.0  0.7997770423232333  0.9594580618378348  0.30598064908448563  1.0000
  C   C28       1.0  0.9019424907747071  0.4426267984794381  0.14440411598595082  1.0000
  C   C29       1.0  0.8283748730371857  0.3915387499273659  0.15063711854642303  1.0000
  C   C30       1.0  0.7910712533876915  0.3657672085835114  0.0366488345475482  1.0000
  C   C31       1.0  0.8283232177984038  0.39176879433443434  0.9153348084257974  1.0000
  C   C32       1.0  0.9018913138288331  0.4428546280257291  0.9071106392709954  1.0000
  C   C33       1.0  0.9382888681428845  0.46799805514070925  0.022183601987081136  1.0000
  C   C34       1.0  0.7132409774620463  0.31171958087451257  0.044296338675246405  1.0000
  C   C35       1.0  0.6921457570746932  0.21275432298919458  0.14057193049303685  1.0000
  C   C36       1.0  0.618888401779566  0.16194013434860552  0.14763622035277724  1.0000
  C   C37       1.0  0.5655674586842452  0.20917042384763393  0.058806362273514885  1.0000
  C   C38       1.0  0.5861670016243428  0.3077334868296162  0.9627131247264941  1.0000
  C   C39       1.0  0.6594017795785471  0.3586483880686753  0.9553836041540014  1.0000
  N   N3        1.0  0.4906421968307458  0.1571396884373066  0.06616821261179862  1.0000
  H   H21       1.0  0.9299879079697917  0.46204032892163927  0.4694860630421054  1.0000
  H   H22       1.0  0.7995353835445677  0.3733353859781987  0.24426047965323797  1.0000
  H   H23       1.0  0.8001917966281397  0.37041024924547195  0.8273091598964487  1.0000
  H   H24       1.0  0.9950430613837163  0.5074092496509959  0.016607132771338625  1.0000
  H   H25       1.0  0.9299128066835345  0.4623754518371257  0.5765197761551715  1.0000
  H   H26       1.0  0.7325650775437721  0.1734681260875328  0.2093457341135254  1.0000
  H   H27       1.0  0.6037476430024372  0.0855264961815325  0.2221555867590228  1.0000
  H   H28       1.0  0.5454343682133944  0.34534678002978714  0.8936837726679787  1.0000
  H   H29       1.0  0.673664129934604  0.4359071801618567  0.8812370257288925  1.0000
  H   H30       1.0  0.45050263348978997  0.19172096112756476  0.0003666191573081805  1.0000
  H   H31       1.0  0.4747570364223974  0.08365321513236701  0.13747503625490975  1.0000
  Zn  Zn1       1.0  0.8195979779723024  0.44074304822849614  0.52957846578918  1.0000
  Zn  Zn2       1.0  0.9842286466021755  0.44473754617609695  0.52193606279815  1.0000
  C   C40       1.0  0.9019002818042251  0.437637892123232  0.762942739744275  1.0000
  C   C41       1.0  0.9019281402191232  0.4478443845351753  0.2885718328945732  1.0000
  C   C42       1.0  0.9018693323213347  0.679927761391469  0.5205891435279133  1.0000
  C   C43       1.0  0.9019590338102436  0.2055529536444957  0.5309255009116036  1.0000
  O   O1        1.0  0.9643998058590414  0.4511056795726217  0.3340555834151617  1.0000
  O   O2        1.0  0.9643794845670642  0.43740734878159854  0.7116582083289917  1.0000
  O   O3        1.0  0.9643536501647935  0.6330594623576725  0.5159560038268933  1.0000
  O   O4        1.0  0.9644255840888232  0.25545357389450274  0.5297576931546746  1.0000
  O   O5        1.0  0.8394009843052873  0.6300270191483758  0.5217568380338014  1.0000
  O   O6        1.0  0.839426818418961  0.43437646583302925  0.7174589733363779  1.0000
  O   O7        1.0  0.8394471398740476  0.4480747509036293  0.33985478708230876  1.0000
  O   O8        1.0  0.8394729180959509  0.252422635965841  0.535556994185554  1.0000
