data_image0
_chemical_formula_structural       NC9NC5H8C6H6C7H8Zn2C4O8
_chemical_formula_sum              "N2 C31 H22 Zn2 O8"
_cell_length_a       17.807436237873137
_cell_length_b       10.681118228259551
_cell_length_c       9.274345330872308
_cell_angle_alpha    85.12371440556142
_cell_angle_beta     88.93938532988027
_cell_angle_gamma    88.3900060031841

_space_group_name_H-M_alt    "P 1"
_space_group_IT_number       1

loop_
  _space_group_symop_operation_xyz
  'x, y, z'

loop_
  _atom_site_type_symbol
  _atom_site_label
  _atom_site_symmetry_multiplicity
  _atom_site_fract_x
  _atom_site_fract_y
  _atom_site_fract_z
  _atom_site_occupancy
  N   N1        1.0  0.7138422374720843  0.34856459023187997  0.3964804390758496  1.0000
  C   C1        1.0  0.6533038523742718  0.31471078750040204  0.3842290909772965  1.0000
  C   C2        1.0  0.5780007551091235  0.2726003852007727  0.36898974417995345  1.0000
  C   C3        1.0  0.5603773857150777  0.20449029979774688  0.25229578146245774  1.0000
  C   C4        1.0  0.48726233141562947  0.16349742474168094  0.2374075295452451  1.0000
  C   C5        1.0  0.43072207273904023  0.19025082105107075  0.33917717528259983  1.0000
  C   C6        1.0  0.3530192518350458  0.14679617516633295  0.32344603176579384  1.0000
  C   C7        1.0  0.2907272635813867  0.2254462450393393  0.35227304672862103  1.0000
  C   C8        1.0  0.2174698434858524  0.18425748450895085  0.3373999990716845  1.0000
  C   C9        1.0  0.1541261428835961  0.2655001772191168  0.366631435723513  1.0000
  N   N2        1.0  0.1032107991317421  0.33081367360782044  0.39013270341303374  1.0000
  C   C10       1.0  0.20592097984023452  0.06417006935163783  0.2936717640874533  1.0000
  C   C11       1.0  0.2673556356701959  0.9855067021688092  0.26483542530449844  1.0000
  C   C12       1.0  0.3404945266349507  0.026316467094994245  0.2794833835929942  1.0000
  C   C13       1.0  0.44903586933153583  0.2588360424701648  0.45611477709501624  1.0000
  C   C14       1.0  0.5222044887953282  0.29964644109415706  0.4708300478835312  1.0000
  H   H1        1.0  0.6030919573823338  0.18332342358715925  0.17259847007018814  1.0000
  H   H2        1.0  0.4747193935252573  0.11232815864531108  0.14525462755023377  1.0000
  H   H3        1.0  0.2990959922887369  0.319222909817094  0.3843653153847051  1.0000
  H   H4        1.0  0.14950318755394976  0.031425666565771046  0.2818972255847769  1.0000
  H   H5        1.0  0.2582939127031448  0.8925294756710006  0.23140909120914177  1.0000
  H   H6        1.0  0.3872202800458225  0.963056233067496  0.25831409406473327  1.0000
  H   H7        1.0  0.4070324081381481  0.27947381746822897  0.5372507168704913  1.0000
  H   H8        1.0  0.5352804187842313  0.35200018825967067  0.5618253482973683  1.0000
  C   C15       1.0  0.9085300919574906  0.9719389379335363  0.3933127460995229  1.0000
  C   C16       1.0  0.9410527155373815  0.895181499782415  0.5073956112165436  1.0000
  C   C17       1.0  0.9410527043153055  0.7642992625566125  0.5073955454175805  1.0000
  C   C18       1.0  0.9085300790930108  0.7074293420623301  0.39331280869637303  1.0000
  C   C19       1.0  0.8760343785057214  0.7841735237565575  0.2793242179340125  1.0000
  C   C20       1.0  0.8760343897198887  0.915065780954992  0.2793242763248136  1.0000
  H   H9        1.0  0.8756407112534123  0.2807045242734998  0.2779446810314312  1.0000
  H   H10       1.0  0.9665455269739344  0.9361980303501443  0.5968190996105488  1.0000
  H   H11       1.0  0.9665454347032114  0.7076940061302981  0.5968190756219385  1.0000
  H   H12       1.0  0.8505382432265899  0.7432027657084841  0.18988905351761276  1.0000
  H   H13       1.0  0.8505382235798306  0.9716272057160202  0.18988904210295487  1.0000
  H   H14       1.0  0.8756409894353978  0.41877516329582043  0.2779442861004752  1.0000
  C   C21       1.0  0.9102297164161128  0.34242242154775604  0.9694826128552685  1.0000
  C   C22       1.0  0.8654946074059964  0.43267194221716093  0.03547149048670951  1.0000
  C   C23       1.0  0.8162677320930445  0.5130551983778879  0.9542403992310143  1.0000
  C   C24       1.0  0.8100374383458782  0.5041267081219267  0.8053977597601159  1.0000
  C   C25       1.0  0.8559375181200366  0.41734513065964074  0.7373856044629363  1.0000
  C   C26       1.0  0.906830422657529  0.33694584029842045  0.8171429063012815  1.0000
  C   C27       1.0  0.7582558358351532  0.5925161218595643  0.7177131337371407  1.0000
  H   H15       1.0  0.9964823747131712  0.06572129700407059  0.09641289982924484  1.0000
  H   H16       1.0  0.8674076379782418  0.4393048406662371  0.15125729649622688  1.0000
  H   H17       1.0  0.7823542087696894  0.5814971054875329  0.007955491838969486  1.0000
  H   H18       1.0  0.853093183261035  0.41461957370213054  0.6210399159424254  1.0000
  H   H19       1.0  0.9676363692461034  0.15312477048486173  0.5522561840952971  1.0000
  H   H20       1.0  0.7889382313268192  0.6780664854868332  0.6780889308501563  1.0000
  H   H21       1.0  0.7089515228907345  0.6202731675612476  0.7840918462709863  1.0000
  H   H22       1.0  0.7371484613710723  0.5471991012494417  0.6234556234966089  1.0000
  Zn  Zn1       1.0  0.8262055588772327  0.3434386636676232  0.3946569667186881  1.0000
  Zn  Zn2       1.0  0.990847411947576  0.33592931537674664  0.3919680411050274  1.0000
  C   C28       1.0  0.9074713033841417  0.3329921740972936  0.6569170152026977  1.0000
  C   C29       1.0  0.9095834647564599  0.34637730213347945  0.12970810491660997  1.0000
  C   C30       1.0  0.9085492709073182  0.568443309602626  0.38756148899015397  1.0000
  C   C31       1.0  0.908505440743998  0.11092466411018842  0.3990637089941624  1.0000
  O   O1        1.0  0.9718473019980287  0.3448493742308807  0.1824608104729506  1.0000
  O   O2        1.0  0.9701668247359401  0.3288197383498725  0.6021230618533184  1.0000
  O   O3        1.0  0.971036448855402  0.5189495366765782  0.38461658245789065  1.0000
  O   O4        1.0  0.9709776221314217  0.15471958812423692  0.39996718256965824  1.0000
  O   O5        1.0  0.8460752925092335  0.5246483934841173  0.3866578261640641  1.0000
  O   O6        1.0  0.8452056686949034  0.3345201002393547  0.6041642286044907  1.0000
  O   O7        1.0  0.8468861529656105  0.3505497036893723  0.18450024197776171  1.0000
  O   O8        1.0  0.846016472661995  0.16041990792665103  0.4020067222831968  1.0000
