data_image0
_chemical_formula_structural       NC8NC6H8C7OC3NC3H10C7OC6OH12Zn2C4O8
_chemical_formula_sum              "N3 C44 H30 O11 Zn2"
_cell_length_a       17.457602349358154
_cell_length_b       10.298746005989749
_cell_length_c       10.299362532796529
_cell_angle_alpha    85.58216748152913
_cell_angle_beta     92.89066602148195
_cell_angle_gamma    91.69721484149154

_space_group_name_H-M_alt    "P 1"
_space_group_IT_number       1

loop_
  _space_group_symop_operation_xyz
  'x, y, z'

loop_
  _atom_site_type_symbol
  _atom_site_label
  _atom_site_symmetry_multiplicity
  _atom_site_fract_x
  _atom_site_fract_y
  _atom_site_fract_z
  _atom_site_occupancy
  N   N1        1.0  0.7223489277002385  0.4525155571618673  0.626592328000157  1.0000
  C   C1        1.0  0.6612649127285498  0.40658302340103925  0.6159734091543652  1.0000
  C   C2        1.0  0.5852738171185862  0.349448669330519  0.6027730165378136  1.0000
  C   C3        1.0  0.5267608122048243  0.3896379719855081  0.677674049042203  1.0000
  C   C4        1.0  0.4522080994710325  0.3346222581739884  0.6650882428964784  1.0000
  C   C5        1.0  0.3901051083283721  0.37705631921800026  0.7444112684098592  1.0000
  C   C6        1.0  0.3155514619801614  0.3955084057185763  0.6886485308406848  1.0000
  C   C7        1.0  0.2570384534977798  0.4355138018660094  0.7636575055175789  1.0000
  C   C8        1.0  0.18104636211793404  0.4545710823290081  0.7056793290172714  1.0000
  N   N2        1.0  0.11996163656628989  0.46988675562923143  0.6590650257289177  1.0000
  C   C9        1.0  0.2725870318988391  0.4573104368284522  0.8949377561374449  1.0000
  C   C10       1.0  0.3463560725038694  0.4392474944815709  0.9510881214222892  1.0000
  C   C11       1.0  0.4048575652628023  0.39942231481950885  0.8765368841332646  1.0000
  C   C12       1.0  0.437456747317948  0.23873930490993356  0.5761684265348395  1.0000
  C   C13       1.0  0.4959581236970426  0.19882883430040366  0.5016674195982692  1.0000
  C   C14       1.0  0.5697261679473522  0.2539571097029403  0.514803187832725  1.0000
  H   H1        1.0  0.5391225453600207  0.4648600862024397  0.7443104114720843  1.0000
  H   H2        1.0  0.3031889983280185  0.3805041279109954  0.5866221679809395  1.0000
  H   H3        1.0  0.2277382692497157  0.488214710857956  0.953776181767888  1.0000
  H   H4        1.0  0.35820491624479966  0.45580944571033766  0.05274132584740232  1.0000
  H   H5        1.0  0.4613489797169951  0.38444401662175764  0.9226427169350016  1.0000
  H   H6        1.0  0.3809660613827906  0.19339647795225984  0.5655134303464402  1.0000
  H   H7        1.0  0.48411011945863097  0.12472289240047574  0.43383280117368855  1.0000
  H   H8        1.0  0.6145749711775096  0.22218322756778305  0.4564758327393428  1.0000
  C   C15       1.0  0.9211222833037385  0.07979761203660307  0.6428088128559122  1.0000
  C   C16       1.0  0.95699322467349  0.08983410182849115  0.5232357423872092  1.0000
  C   C17       1.0  0.9743244278041435  0.9777502067573576  0.46201892593525784  1.0000
  C   C18       1.0  0.9569937921929565  0.8545975113831646  0.5231866522968593  1.0000
  C   C19       1.0  0.9211956026440149  0.8425950212607239  0.6428603547824763  1.0000
  C   C20       1.0  0.903302298416667  0.9557623743299936  0.7017425136812774  1.0000
  C   C21       1.0  0.012856007215585436  0.9881858033371748  0.3363519695991213  1.0000
  O   O1        1.0  0.05969627443530424  0.9022466337503577  0.3149654586161652  1.0000
  C   C22       1.0  0.9982518864562177  0.09605526887165228  0.23495491208619296  1.0000
  C   C23       1.0  0.9256022564663734  0.1522697499838368  0.21691439212872532  1.0000
  C   C24       1.0  0.9121431017507796  0.25332390257597504  0.11990968371091437  1.0000
  N   N3        1.0  0.8382654616901627  0.3103272001497679  0.10267223723257769  1.0000
  C   C25       1.0  0.9713808227344046  0.2977728046053081  0.03961456391189722  1.0000
  C   C26       1.0  0.043329844850873656  0.24136239186029051  0.055741819541774706  1.0000
  C   C27       1.0  0.056729274845996436  0.14073001247733852  0.1524374465084937  1.0000
  H   H9        1.0  0.8544079499628493  0.2681755117090563  0.8696927389351323  1.0000
  H   H10       1.0  0.9722431169872643  0.1850032294530903  0.4782600222995582  1.0000
  H   H11       1.0  0.9708232268419303  0.7679957596487186  0.4766188626398954  1.0000
  H   H12       1.0  0.8756560612664526  0.9472741418911238  0.7939138996340821  1.0000
  H   H13       1.0  0.8538436138016198  0.612610938861105  0.8692036850307521  1.0000
  H   H14       1.0  0.879150610097296  0.1168555041951873  0.27708246499913214  1.0000
  H   H15       1.0  0.7936981742035212  0.2779450204869933  0.16198275639534954  1.0000
  H   H16       1.0  0.9617003559085328  0.3756789999218183  0.9643378595980503  1.0000
  H   H17       1.0  0.08884109332842961  0.27569924370605015  0.9931646674862257  1.0000
  H   H18       1.0  0.11299918962877326  0.09854840364710515  0.163560426957452  1.0000
  C   C28       1.0  0.92109906125457  0.46107314613038536  0.2614628137614907  1.0000
  C   C29       1.0  0.8482652697880152  0.3992055760178587  0.2587986894563006  1.0000
  C   C30       1.0  0.8111993408877928  0.3693103100587787  0.14025654530082865  1.0000
  C   C31       1.0  0.848481342457955  0.39937858754161754  0.023562045843217527  1.0000
  C   C32       1.0  0.9212188470498697  0.4613194540464722  0.024206386051787827  1.0000
  C   C33       1.0  0.957045022860816  0.49206223128090526  0.14365618067921826  1.0000
  C   C34       1.0  0.7346787116352105  0.30266422416732297  0.13980619940969685  1.0000
  O   O2        1.0  0.7189961842256412  0.22276581107921856  0.23441725105141487  1.0000
  C   C35       1.0  0.6759521564484134  0.3266519963149823  0.03209682714535966  1.0000
  C   C36       1.0  0.6700640953830291  0.44977769567253034  0.9637699268273938  1.0000
  C   C37       1.0  0.6139096543399988  0.4715060248598888  0.8634896980019767  1.0000
  C   C38       1.0  0.5622913673447248  0.3715783704854709  0.8302194310255914  1.0000
  C   C39       1.0  0.5673725984454508  0.24861099260523128  0.8993986658042533  1.0000
  C   C40       1.0  0.6235201518851692  0.2267551526830149  0.9997507295346513  1.0000
  O   O3        1.0  0.5070642143760862  0.39832761175297615  0.7287262688971627  1.0000
  H   H19       1.0  0.05866729945838279  0.5773314795023614  0.4738087927070965  1.0000
  H   H20       1.0  0.8198564763664219  0.37522158199920175  0.3490112890340016  1.0000
  H   H21       1.0  0.821052631300615  0.37309808097595054  0.9322663945896156  1.0000
  H   H22       1.0  0.013156902904518654  0.5398409261065265  0.14488604117562298  1.0000
  H   H23       1.0  0.9492511562827466  0.48460402748792014  0.6970278821652373  1.0000
  H   H24       1.0  0.7083128043860323  0.5297060378294454  0.9887225483460608  1.0000
  H   H25       1.0  0.6102633213373476  0.5668141417601209  0.8116339727774987  1.0000
  H   H26       1.0  0.5282426657300475  0.16932999711218552  0.8764708921908412  1.0000
  H   H27       1.0  0.6264210539341132  0.13123258525698178  0.051432373012666247  1.0000
  H   H28       1.0  0.41508390681011936  0.3532394812284547  0.603755844374902  1.0000
  H   H29       1.0  0.41364939995270206  0.2722619176216629  0.7652669259727758  1.0000
  H   H30       1.0  0.47970820712801976  0.22203652479804087  0.648453220082722  1.0000
  Zn  Zn1       1.0  0.8370913674466847  0.4575250292025634  0.635970745405196  1.0000
  Zn  Zn2       1.0  0.00521918321586501  0.464866638231513  0.6496972402114076  1.0000
  C   C41       1.0  0.9211939855291356  0.4560986819621852  0.880031014817942  1.0000
  C   C42       1.0  0.9211184012614912  0.46629470445218346  0.4056372482697295  1.0000
  C   C43       1.0  0.9211769908033267  0.6984082135678453  0.6376750913948461  1.0000
  C   C44       1.0  0.9211353384778898  0.2239836099188648  0.6479932361426122  1.0000
  O   O4        1.0  0.9849285212786988  0.47082754323187687  0.4592326384001679  1.0000
  O   O5        1.0  0.984988987314991  0.4571369746296352  0.8368533427208824  1.0000
  O   O6        1.0  0.9849744039675765  0.6528049487015826  0.6411491497170179  1.0000
  O   O7        1.0  0.9849430472410808  0.27515957591435813  0.6549367293453385  1.0000
  O   O8        1.0  0.8573674460476958  0.6472320890157994  0.6307312515802553  1.0000
  O   O9        1.0  0.8573820295307474  0.45156567536759135  0.8264353754433222  1.0000
  O   O10       1.0  0.8573215632959414  0.4652561982077263  0.4488131097113082  1.0000
  O   O11       1.0  0.8573360892695829  0.2695882216318597  0.6445172980241626  1.0000
