data_image0
_chemical_formula_structural       NC8NC6H8C6NH7C6NCH9Zn2C4O8
_chemical_formula_sum              "N4 C31 H24 Zn2 O8"
_cell_length_a       17.457602349358154
_cell_length_b       9.274771166103582
_cell_length_c       9.273390368590327
_cell_angle_alpha    86.06293122453995
_cell_angle_beta     92.8511133753594
_cell_angle_gamma    92.29117059398062

_space_group_name_H-M_alt    "P 1"
_space_group_IT_number       1

loop_
  _space_group_symop_operation_xyz
  'x, y, z'

loop_
  _atom_site_type_symbol
  _atom_site_label
  _atom_site_symmetry_multiplicity
  _atom_site_fract_x
  _atom_site_fract_y
  _atom_site_fract_z
  _atom_site_occupancy
  N   N1        1.0  0.7314384187486204  0.5979071760464703  0.47356240384016157  1.0000
  C   C1        1.0  0.6700770578957733  0.5467589245425297  0.46184940882867886  1.0000
  C   C2        1.0  0.5937409770007279  0.48313696087803804  0.44728902406405746  1.0000
  C   C3        1.0  0.5354583931137519  0.5286400462713778  0.53034963363437  1.0000
  C   C4        1.0  0.46057346439388996  0.4673787249872152  0.5164679982520584  1.0000
  C   C5        1.0  0.3987137198542159  0.5154260943756357  0.6044325238527044  1.0000
  C   C6        1.0  0.3242826940926857  0.5352870474919371  0.5425196829688985  1.0000
  C   C7        1.0  0.2659989681043859  0.5805870639047168  0.6257003707492907  1.0000
  C   C8        1.0  0.19013359118519602  0.6010949994363364  0.561327948352428  1.0000
  N   N2        1.0  0.12915070523215713  0.617576293518276  0.5095726978444293  1.0000
  C   C9        1.0  0.2816555932164767  0.6063022541960623  0.7713578830505865  1.0000
  C   C10       1.0  0.3553043073705546  0.5868780368616664  0.8337002966460589  1.0000
  C   C11       1.0  0.4135775281398  0.5417834584399202  0.7510273132471736  1.0000
  C   C12       1.0  0.4452556199895343  0.35984480730972357  0.41793652790504066  1.0000
  C   C13       1.0  0.5035281963260855  0.31465605283492404  0.33531942185264363  1.0000
  C   C14       1.0  0.5776290384249853  0.3760487082794519  0.349811215730619  1.0000
  H   H1        1.0  0.5482651338232752  0.6129668670679844  0.6041837032660202  1.0000
  H   H2        1.0  0.3118480294079607  0.5174520473496202  0.4293168040929074  1.0000
  H   H3        1.0  0.2369837850652468  0.6413068564785604  0.8366070946278075  1.0000
  H   H4        1.0  0.3672348944241497  0.6064392023063694  0.9464866252292103  1.0000
  H   H5        1.0  0.4699692495731176  0.5256711430035486  0.8022177501056451  1.0000
  H   H6        1.0  0.3884911810715834  0.3093512534092655  0.4061825757796593  1.0000
  H   H7        1.0  0.4912421959381327  0.2315554955253467  0.2601538178992202  1.0000
  H   H8        1.0  0.6222955034434381  0.3400838950668832  0.2851305330608773  1.0000
  C   C15       1.0  0.9279421502497212  0.18403717744750359  0.4921401406343313  1.0000
  C   C16       1.0  0.910286129971233  0.26510293582059186  0.3616548746179402  1.0000
  C   C17       1.0  0.8997952309537253  0.1981562214211019  0.23100063453594766  1.0000
  C   C18       1.0  0.9070006080199543  0.048758281949320414  0.22989584460292822  1.0000
  C   C19       1.0  0.9232375844959653  0.9662840987538357  0.3584820998980547  1.0000
  C   C20       1.0  0.9326542566670315  0.03143569078085018  0.4910081352705584  1.0000
  N   N3        1.0  0.8826107437629849  0.28232974276774403  0.09914152410123145  1.0000
  H   H9        1.0  0.014300777397944886  0.27132074145158125  0.8153845875731396  1.0000
  H   H10       1.0  0.9064167220603858  0.3814983961318359  0.360750893473891  1.0000
  H   H11       1.0  0.8992921356717969  0.9958292193072175  0.12940347547684716  1.0000
  H   H12       1.0  0.9266197069274326  0.8502434789258666  0.3546606109475625  1.0000
  H   H13       1.0  0.987709795793121  0.7393729549644784  0.7105938975766197  1.0000
  H   H14       1.0  0.877323322254983  0.3941416540113549  0.09861596998673883  1.0000
  H   H15       1.0  0.874974458106927  0.23344664871145349  0.001025927144813199  1.0000
  C   C21       1.0  0.9303087474249243  0.6032387833255852  0.06833758151269098  1.0000
  C   C22       1.0  0.0007763915150136302  0.6038577315810605  0.14832573585860143  1.0000
  C   C23       1.0  0.07008922698706965  0.6178286568680125  0.07916738426070813  1.0000
  C   C24       1.0  0.07069617745810053  0.6316585389760356  0.9275689608380131  1.0000
  C   C25       1.0  0.0006827584971227374  0.6286294347746222  0.8468168074517153  1.0000
  C   C26       1.0  0.9302876663764287  0.6122340741332488  0.91481065497261  1.0000
  N   N4        1.0  0.14131531001462738  0.6473549161043366  0.8531523472177844  1.0000
  C   C27       1.0  0.21708660276011993  0.6512722365301156  0.9270008389855708  1.0000
  H   H16       1.0  0.8087955982211916  0.5279403458631651  0.34330282137488277  1.0000
  H   H17       1.0  0.0023309984320387667  0.5969718162159952  0.2655274281948463  1.0000
  H   H18       1.0  0.12295659995836017  0.6191159343940822  0.1450776338623112  1.0000
  H   H19       1.0  0.001293531541316506  0.635767260107488  0.7297313990510781  1.0000
  H   H20       1.0  0.7508196063934034  0.4912948183899628  0.8032760687909155  1.0000
  H   H21       1.0  0.13887849312385603  0.6567941725406348  0.7400382866342894  1.0000
  H   H22       1.0  0.2225817931184959  0.7440757466828509  0.9967966793433298  1.0000
  H   H23       1.0  0.22587398479502796  0.54859779754091  0.9935401289224357  1.0000
  H   H24       1.0  0.262120452897564  0.6644041616843048  0.846167736213538  1.0000
  Zn  Zn1       1.0  0.8462095718784195  0.6035794775866108  0.48396252366264614  1.0000
  Zn  Zn2       1.0  0.014379471776604369  0.61189228753434  0.4991843936180971  1.0000
  C   C28       1.0  0.9302579602966837  0.6047856540092476  0.7548166485644396  1.0000
  C   C29       1.0  0.9303329298882026  0.610688023913784  0.2283305739666528  1.0000
  C   C30       1.0  0.9317597519593386  0.8711980740782066  0.48547841018756976  1.0000
  C   C31       1.0  0.9288310711995277  0.3442738683126043  0.4976688863049745  1.0000
  O   O1        1.0  0.9941606113276804  0.6163364304604981  0.2878023125159552  1.0000
  O   O2        1.0  0.9940673356509864  0.6054453849768529  0.7068975436675482  1.0000
  O   O3        1.0  0.9952791910552303  0.8205767568265685  0.4894049306885795  1.0000
  O   O4        1.0  0.9929486985985294  0.4012050649473389  0.505294812222242  1.0000
  O   O5        1.0  0.8676402876683702  0.8142666973383479  0.4778520998564406  1.0000
  O   O6        1.0  0.8664284419020217  0.5991370581855886  0.6953446336718974  1.0000
  O   O7        1.0  0.8665217173933593  0.6100280349777114  0.2762476697769649  1.0000
  O   O8        1.0  0.8653098046009909  0.39489666029273174  0.49374027755387373  1.0000
