data_image0
_chemical_formula_structural       NC8NC6H8C6H6C6NH7Zn2C4O8
_chemical_formula_sum              "N3 C30 H21 Zn2 O8"
_cell_length_a       17.457602349358154
_cell_length_b       10.681118228259551
_cell_length_c       9.274774538082514
_cell_angle_alpha    85.06361991993052
_cell_angle_beta     93.23827242343725
_cell_angle_gamma    91.68806569353352

_space_group_name_H-M_alt    "P 1"
_space_group_IT_number       1

loop_
  _space_group_symop_operation_xyz
  'x, y, z'

loop_
  _atom_site_type_symbol
  _atom_site_label
  _atom_site_symmetry_multiplicity
  _atom_site_fract_x
  _atom_site_fract_y
  _atom_site_fract_z
  _atom_site_occupancy
  N   N1        1.0  0.7174646183187035  0.41227539227704746  0.4731805695760385  1.0000
  C   C1        1.0  0.6563483491017834  0.3680780507516417  0.4613797915116056  1.0000
  C   C2        1.0  0.5803171616228863  0.31310198944505285  0.44671023074433736  1.0000
  C   C3        1.0  0.52205902041374  0.35121141588579685  0.5299688622743359  1.0000
  C   C4        1.0  0.4474681346078586  0.2982728907788925  0.51598233043467  1.0000
  C   C5        1.0  0.3856350660969754  0.3385088639027818  0.6041563789281603  1.0000
  C   C6        1.0  0.3108870145037214  0.3567777543518964  0.5421678988891674  1.0000
  C   C7        1.0  0.2526292603286951  0.3947089337326648  0.6255465351339808  1.0000
  C   C8        1.0  0.1764350523636941  0.4135803184627047  0.5610952786490278  1.0000
  N   N2        1.0  0.1151878262129024  0.4287467587020246  0.5092766363441841  1.0000
  C   C9        1.0  0.2686292315192476  0.41460148414864695  0.7714789356832619  1.0000
  C   C10       1.0  0.3425939788768869  0.39670448904983147  0.8338982820755405  1.0000
  C   C11       1.0  0.4008417811622882  0.3589431563655554  0.7510284633308844  1.0000
  C   C12       1.0  0.4324188609566761  0.2065835380208687  0.4171442881609255  1.0000
  C   C13       1.0  0.4906667285994176  0.1687395376381946  0.3343303129910258  1.0000
  C   C14       1.0  0.5644748348578619  0.22178188697398937  0.3489281864304443  1.0000
  H   H1        1.0  0.5346436908228303  0.42317030012120327  0.6040376739431745  1.0000
  H   H2        1.0  0.2981735578028119  0.34318398405612616  0.4287542586024542  1.0000
  H   H3        1.0  0.2239807410166145  0.4438957690247385  0.8368827142674946  1.0000
  H   H4        1.0  0.3547923764767824  0.4118033656452791  0.9468969942626431  1.0000
  H   H5        1.0  0.4574939072360171  0.3441063665990549  0.8022818532502431  1.0000
  H   H6        1.0  0.3758957393056783  0.1629551018448474  0.4053033614618837  1.0000
  H   H7        1.0  0.47859154026291967  0.0978671265843345  0.2589294096231094  1.0000
  H   H8        1.0  0.6091252152077193  0.1916447492105302  0.2840925904525482  1.0000
  C   C15       1.0  0.916329920481831  0.05276116305837153  0.49123514821604375  1.0000
  C   C16       1.0  0.9503923637541795  0.9787923470227715  0.6089433586120929  1.0000
  C   C17       1.0  0.9503923518065881  0.8479101088508513  0.6089432915436992  1.0000
  C   C18       1.0  0.9163299077996347  0.7882515660184678  0.49123520945421584  1.0000
  C   C19       1.0  0.8822956609984407  0.8622094341853719  0.37362427444270985  1.0000
  C   C20       1.0  0.8822956728835302  0.9931016923337438  0.37362433409689766  1.0000
  H   H9        1.0  0.8818833651916373  0.3587066792354996  0.3722008558229426  1.0000
  H   H10       1.0  0.97709215915679  0.021994735123030518  0.7012085685174623  1.0000
  H   H11       1.0  0.9770920647189427  0.7934907028088981  0.7012085344529004  1.0000
  H   H12       1.0  0.855592384259945  0.8190525336151215  0.2813470179896216  1.0000
  H   H13       1.0  0.8555923641054177  0.047476971903024134  0.28134700442512806  1.0000
  H   H14       1.0  0.881883646474579  0.4967773429455806  0.37220049094261465  1.0000
  C   C21       1.0  0.9149526252503748  0.4236522874706661  0.06729386588880071  1.0000
  C   C22       1.0  0.9693319586505814  0.4998057495995645  0.1389656707917517  1.0000
  C   C23       1.0  0.02715426108601382  0.5657859746263523  0.06344852117573274  1.0000
  C   C24       1.0  0.03106553921587385  0.55592051560672  0.9148260799559305  1.0000
  C   C25       1.0  0.9769324235930605  0.4825359713869224  0.8414740586323122  1.0000
  C   C26       1.0  0.9177071867853882  0.4173603762510889  0.9151764867252097  1.0000
  N   N3        1.0  0.08241462123971788  0.6418016995670679  0.13820553030923355  1.0000
  H   H15       1.0  0.8002390944628074  0.1740962453641446  0.18280313690305272  1.0000
  H   H16       1.0  0.9679505286920211  0.5056879196569231  0.25486042656706687  1.0000
  H   H17       1.0  0.07570870054514223  0.6061537469794447  0.8553469798515385  1.0000
  H   H18       1.0  0.9803545890828326  0.47919424012810685  0.725611593329039  1.0000
  H   H19       1.0  0.8380866379929581  0.2529904000526433  0.6418685926438394  1.0000
  H   H20       1.0  0.08018605760969955  0.6495626190186528  0.249373196697801  1.0000
  H   H21       1.0  0.1259500876695856  0.69100426031461  0.0829145840155936  1.0000
  Zn  Zn1       1.0  0.8322389719353337  0.4170252526377469  0.48360545025330626  1.0000
  Zn  Zn2       1.0  0.00041349674520319013  0.4239865430530918  0.4988635751077537  1.0000
  C   C27       1.0  0.9171848081791335  0.41356071510145265  0.7549083625628235  1.0000
  C   C28       1.0  0.9154694974222729  0.4274527356584623  0.22756097111220575  1.0000
  C   C29       1.0  0.9163072626724202  0.6492707249250749  0.4854819593659536  1.0000
  C   C30       1.0  0.9163469857928703  0.19174121830505886  0.4969874460701944  1.0000
  O   O1        1.0  0.9794643201614547  0.4313645108070192  0.28713845454670106  1.0000
  O   O2        1.0  0.9808305571269352  0.4149314566527129  0.7069110272651511  1.0000
  O   O3        1.0  0.9801210725665797  0.6052702237934628  0.4893472223890738  1.0000
  O   O4        1.0  0.9801737469835755  0.2410257510525653  0.5047021459715655  1.0000
  O   O5        1.0  0.852478664307225  0.5999860422641461  0.4777668741750516  1.0000
  O   O6        1.0  0.85318814861396  0.4096487802790496  0.695330602075567  1.0000
  O   O7        1.0  0.851821906060645  0.42608180367572523  0.2755562936611413  1.0000
  O   O8        1.0  0.8525313332312642  0.23574303416084774  0.49312009332277573  1.0000
