data_image0
_chemical_formula_structural       NC8NC6H8C6OCH8C8H10Zn2C4O8
_chemical_formula_sum              "N2 C33 H26 O9 Zn2"
_cell_length_a       17.457602349358154
_cell_length_b       9.273888216677433
_cell_length_c       9.275657083861812
_cell_angle_alpha    86.0490458067009
_cell_angle_beta     92.37146316173272
_cell_angle_gamma    91.10627454168798

_space_group_name_H-M_alt    "P 1"
_space_group_IT_number       1

loop_
  _space_group_symop_operation_xyz
  'x, y, z'

loop_
  _atom_site_type_symbol
  _atom_site_label
  _atom_site_symmetry_multiplicity
  _atom_site_fract_x
  _atom_site_fract_y
  _atom_site_fract_z
  _atom_site_occupancy
  N   N1        1.0  0.7208983380902677  0.6053059620064247  0.4808869822767392  1.0000
  C   C1        1.0  0.6601470013614518  0.5542666880105815  0.46895484780911545  1.0000
  C   C2        1.0  0.5845696724511725  0.4907802266406289  0.45412187894202005  1.0000
  C   C3        1.0  0.5254174381737191  0.535771664630845  0.5373590737449618  1.0000
  C   C4        1.0  0.4512624851713246  0.4746400272637816  0.5232149332555454  1.0000
  C   C5        1.0  0.3884832955914365  0.5221456585701996  0.611365852122018  1.0000
  C   C6        1.0  0.3141145370626877  0.5423437157802844  0.5495549090181195  1.0000
  C   C7        1.0  0.2549628328230583  0.5871315664551418  0.6329112698805683  1.0000
  C   C8        1.0  0.1791637442708147  0.6079901149767084  0.5686441765958192  1.0000
  N   N2        1.0  0.1182342305766486  0.6247533067253122  0.5169735798792421  1.0000
  C   C9        1.0  0.2696836653239806  0.6119940398523918  0.7786436139004957  1.0000
  C   C10       1.0  0.3432634201307096  0.5922299064772376  0.8408859175322769  1.0000
  C   C11       1.0  0.4024000955540545  0.5476444262208868  0.758038024745654  1.0000
  C   C12       1.0  0.4375598044502511  0.36775714717638563  0.424241432975182  1.0000
  C   C13       1.0  0.4966966100660505  0.32307724940069504  0.3414489944646868  1.0000
  C   C14       1.0  0.5700632991295964  0.38433662946159863  0.3562037094558532  1.0000
  H   H1        1.0  0.5369730392477848  0.6196075489789359  0.6115406461143047  1.0000
  H   H2        1.0  0.3023837254581956  0.525169664257465  0.43630321001489825  1.0000
  H   H3        1.0  0.224336765742374  0.6465973216034013  0.8440283269579105  1.0000
  H   H4        1.0  0.3544732209451824  0.6111310802453869  0.9537286671070018  1.0000
  H   H5        1.0  0.4587369666130147  0.5312531338200286  0.809145552850731  1.0000
  H   H6        1.0  0.3813984405129806  0.31737226560918264  0.41227119464606  1.0000
  H   H7        1.0  0.48565438135069494  0.24047422060408796  0.26594154927833147  1.0000
  H   H8        1.0  0.6154127589536297  0.34877068161440095  0.2913832120182813  1.0000
  C   C15       1.0  0.9218279193835304  0.19167063309727927  0.4976628722021341  1.0000
  C   C16       1.0  0.9045221060946362  0.27342518905356195  0.3673318710978286  1.0000
  C   C17       1.0  0.8806676299958313  0.20690084733709924  0.24206168549572715  1.0000
  C   C18       1.0  0.8739793267282314  0.055619274024476084  0.24664688069198526  1.0000
  C   C19       1.0  0.8921002976245566  0.972695271788619  0.37427898802816606  1.0000
  C   C20       1.0  0.9173119605070911  0.03837792726058087  0.5002107860665497  1.0000
  O   O1        1.0  0.863806820541951  0.29486604857453647  0.11600921376466933  1.0000
  C   C21       1.0  0.8388341179735996  0.2420379203462686  0.9810793635968622  1.0000
  H   H9        1.0  0.9264259227205419  0.27040196221049784  0.852828261710306  1.0000
  H   H10       1.0  0.9077800266456252  0.39043827297441225  0.3633549028062273  1.0000
  H   H11       1.0  0.8554882375747076  0.0007985223330657654  0.1517352111639343  1.0000
  H   H12       1.0  0.8881185583120411  0.8560295050422411  0.37343734724144406  1.0000
  H   H13       1.0  0.9236260201448186  0.7409781727185983  0.73872171536433  1.0000
  H   H14       1.0  0.7837399949763216  0.18130267715514203  0.9926894264036763  1.0000
  H   H15       1.0  0.883051183723395  0.17137181646205057  0.9418698064834188  1.0000
  H   H16       1.0  0.8298796020585819  0.3348757886890805  0.9005670220437159  1.0000
  C   C22       1.0  0.9215344888372656  0.6129465736739783  0.07578777791811708  1.0000
  C   C23       1.0  0.9606637708056727  0.7247886536263355  0.14466587243741502  1.0000
  C   C24       1.0  0.9929902912856687  0.8424697750193897  0.06426872121533145  1.0000
  C   C25       1.0  0.9873306667154127  0.8473809480713921  0.9131339403845997  1.0000
  C   C26       1.0  0.9498538915737804  0.7362653925754548  0.842955580003605  1.0000
  C   C27       1.0  0.9176054044327207  0.6171019728010991  0.9220859046583163  1.0000
  C   C28       1.0  0.03563376444997579  0.9601965493548694  0.1397454500572224  1.0000
  C   C29       1.0  0.12006747859033662  0.9231799353508001  0.1651147297193638  1.0000
  H   H17       1.0  0.8883464754496915  0.38127124666283896  0.3697971570424632  1.0000
  H   H18       1.0  0.9646421512708597  0.7223098548436422  0.2617428826390569  1.0000
  H   H19       1.0  0.012708094156074212  0.9367605213795311  0.8493603572614741  1.0000
  H   H20       1.0  0.9478509488519965  0.7417871164229273  0.7258189776324322  1.0000
  H   H21       1.0  0.8279675560301696  0.44651727921799367  0.6455300037462481  1.0000
  H   H22       1.0  0.03087673539237623  0.06465223847626866  0.07383874399569068  1.0000
  H   H23       1.0  0.010046229261577722  0.9752761445796867  0.24535509164353186  1.0000
  H   H24       1.0  0.12607248322865372  0.8208882956023584  0.2340500002408954  1.0000
  H   H25       1.0  0.1471191139485959  0.9112320822387889  0.06035042929673051  1.0000
  H   H26       1.0  0.15043821965274473  0.011231067349392276  0.22074199251880477  1.0000
  Zn  Zn1       1.0  0.8355608757599873  0.6109142202961286  0.49130910314611875  1.0000
  Zn  Zn2       1.0  0.003571686929186635  0.619133286173551  0.5065632207940336  1.0000
  C   C30       1.0  0.9183770090593842  0.610573120732272  0.7620999765478487  1.0000
  C   C31       1.0  0.9207573779441054  0.6194762952220803  0.23577266087143411  1.0000
  C   C32       1.0  0.9181882990466266  0.8783038392976195  0.4939866875893886  1.0000
  C   C33       1.0  0.9209460395080526  0.3517438421310908  0.5038860162364363  1.0000
  O   O2        1.0  0.9842558332179696  0.6247805325271516  0.2952538882938567  1.0000
  O   O3        1.0  0.9823948796839052  0.611505874621254  0.7141958533891357  1.0000
  O   O4        1.0  0.9822416275009612  0.8277017810898817  0.49769240208236587  1.0000
  O   O5        1.0  0.9844090285168041  0.40858463303652703  0.5117572263841019  1.0000
  O   O6        1.0  0.8547234768385527  0.8214628706299212  0.48611509234299444  1.0000
  O   O7        1.0  0.8548767201364892  0.6052686958837032  0.7026184720301656  1.0000
  O   O8        1.0  0.8567376820327178  0.6185432950467129  0.28367477433141497  1.0000
  O   O9        1.0  0.8568908768818441  0.4023473857748534  0.5001782204251286  1.0000
