data_image0
_chemical_formula_structural       NC8NC6H8C6NCH9C9H8Zn2C4O8
_chemical_formula_sum              "N3 C34 H25 Zn2 O8"
_cell_length_a       17.457602349358154
_cell_length_b       9.273386996610926
_cell_length_c       9.275155815604963
_cell_angle_alpha    85.96204841331945
_cell_angle_beta     93.22066324705655
_cell_angle_gamma    91.0935878010965

_space_group_name_H-M_alt    "P 1"
_space_group_IT_number       1

loop_
  _space_group_symop_operation_xyz
  'x, y, z'

loop_
  _atom_site_type_symbol
  _atom_site_label
  _atom_site_symmetry_multiplicity
  _atom_site_fract_x
  _atom_site_fract_y
  _atom_site_fract_z
  _atom_site_occupancy
  N   N1        1.0  0.7084387457338014  0.6000664525855111  0.4718188894989992  1.0000
  C   C1        1.0  0.6476066377316206  0.5489608511972073  0.4601448421733094  1.0000
  C   C2        1.0  0.5719289116218395  0.4853919220953693  0.4456329059433086  1.0000
  C   C3        1.0  0.5134236711727382  0.530723031923654  0.5286790867626328  1.0000
  C   C4        1.0  0.439173142699634  0.4695125218468814  0.5148441408231541  1.0000
  C   C5        1.0  0.37707917887916914  0.5173778206962101  0.6027935031643727  1.0000
  C   C6        1.0  0.3022155723727479  0.5373448435399575  0.5408470385947328  1.0000
  C   C7        1.0  0.24371186020589733  0.5824727463493158  0.6240134986242871  1.0000
  C   C8        1.0  0.1673982983198408  0.603091023805232  0.5596062339896106  1.0000
  N   N2        1.0  0.10605515112546893  0.6196610353821153  0.5078229762192286  1.0000
  C   C9        1.0  0.2595799335455353  0.6079085990988531  0.7696903359890359  1.0000
  C   C10       1.0  0.3336578353278037  0.5883773397748495  0.8320661324476166  1.0000
  C   C11       1.0  0.3921504904097182  0.543453853664658  0.7494073485954118  1.0000
  C   C12       1.0  0.4247154898798156  0.36220463981634676  0.41637398129927705  1.0000
  C   C13       1.0  0.48320873960356336  0.3171869132864018  0.33377116806288987  1.0000
  C   C14       1.0  0.5566758043982232  0.37852757766771883  0.34821633396457896  1.0000
  H   H1        1.0  0.525544130184851  0.6148789329225945  0.6024641215191033  1.0000
  H   H2        1.0  0.28959263888130843  0.5197260559208854  0.42762736597174467  1.0000
  H   H3        1.0  0.214741460709345  0.6427784087363537  0.8349288242679096  1.0000
  H   H4        1.0  0.3457560560687027  0.6077223513054064  0.9448677143739483  1.0000
  H   H5        1.0  0.44889643666908646  0.5272537111368327  0.800625331007979  1.0000
  H   H6        1.0  0.368472877203098  0.31175354231949726  0.4046584251945906  1.0000
  H   H7        1.0  0.4715908234795867  0.2342592282854703  0.25865321640876027  1.0000
  H   H8        1.0  0.6015215635272636  0.3426969030216884  0.2835473252275156  1.0000
  C   C15       1.0  0.9096122541016887  0.18633240441505095  0.4907433280377824  1.0000
  C   C16       1.0  0.9226572394677993  0.2693280777982068  0.361612459526224  1.0000
  C   C17       1.0  0.9284782617401249  0.20398919603067922  0.23181940723166927  1.0000
  C   C18       1.0  0.9213379007231433  0.05330787607990928  0.22783281023797675  1.0000
  C   C19       1.0  0.9096435022265035  0.9694119449852098  0.35663329912558517  1.0000
  C   C20       1.0  0.9048890616958877  0.03338440544416721  0.48891171990553683  1.0000
  N   N3        1.0  0.9265015291379923  0.9828769908593542  0.09528964276500296  1.0000
  C   C21       1.0  0.9388223239568174  0.060168873191272176  0.9557636501679303  1.0000
  H   H9        1.0  0.9260615728277592  0.45132645298461505  0.7288483766052649  1.0000
  H   H10       1.0  0.9265647194609705  0.3861512970931369  0.36019810415592657  1.0000
  H   H11       1.0  0.937833357386362  0.2722088434584906  0.13476960687006967  1.0000
  H   H12       1.0  0.9060146712311348  0.8528124569019018  0.3540311086802903  1.0000
  H   H13       1.0  0.9342871725609524  0.9064956927306796  0.8426019759077807  1.0000
  H   H14       1.0  0.9210870809294663  0.8702687942203828  0.09778797021739694  1.0000
  H   H15       1.0  0.8911774276714739  0.13617873764428334  0.926408523167995  1.0000
  H   H16       1.0  0.994355521030728  0.12045930325815157  0.9610247354962218  1.0000
  H   H17       1.0  0.9404771403960754  0.9820786858734697  0.8705916125793127  1.0000
  C   C22       1.0  0.9058652418439787  0.6061435692952035  0.06647686820361143  1.0000
  C   C23       1.0  0.84545326790911  0.6734619457712179  0.12870496639562035  1.0000
  C   C24       1.0  0.7901268095286672  0.7506188805761451  0.042278029480647294  1.0000
  C   C25       1.0  0.7941852292023006  0.7620795950884158  0.8920450620354923  1.0000
  C   C26       1.0  0.8530575824780392  0.6939102327819029  0.8279704710737739  1.0000
  C   C27       1.0  0.9086360742261773  0.6135732139707673  0.9131781073627057  1.0000
  C   C28       1.0  0.7372891034953799  0.8425296328704783  0.8031577887906898  1.0000
  C   C29       1.0  0.6896488276941543  0.9098956742016509  0.7287004092160339  1.0000
  C   C30       1.0  0.6318459154249937  0.9916330000619697  0.6383475377767627  1.0000
  H   H18       1.0  0.08459666503772056  0.49855556525915135  0.1958116807793786  1.0000
  H   H19       1.0  0.842028613196864  0.66929410412273  0.24519302917689778  1.0000
  H   H20       1.0  0.7445486989089178  0.8025965756101554  0.09287412136973305  1.0000
  H   H21       1.0  0.854437354730871  0.7007620572730344  0.7109378724411615  1.0000
  H   H22       1.0  0.027925454510308256  0.5359063805212012  0.6505357856615901  1.0000
  H   H23       1.0  0.6474136290408142  0.9965452021100254  0.5237513349882459  1.0000
  H   H24       1.0  0.5749901336653768  0.9374582755056413  0.6483106639123069  1.0000
  H   H25       1.0  0.6292832294303691  0.10290335444226484  0.6744356290655089  1.0000
  Zn  Zn1       1.0  0.823182300181769  0.6057172312192431  0.48221722347130336  1.0000
  Zn  Zn2       1.0  0.9913116869894673  0.6139985353171526  0.49743647079073683  1.0000
  C   C31       1.0  0.9081426652885168  0.6064231438383438  0.7531457485652551  1.0000
  C   C32       1.0  0.9063531481663327  0.6132945341501426  0.22650824945363834  1.0000
  C   C33       1.0  0.9057591090739294  0.8732229562330143  0.4835126899386881  1.0000
  C   C34       1.0  0.9087366569237816  0.3464929868006239  0.4961413834944268  1.0000
  O   O1        1.0  0.9703211551500402  0.6188308829037417  0.28599188155368394  1.0000
  O   O2        1.0  0.9717809773514711  0.6071710216004143  0.7052127603843481  1.0000
  O   O3        1.0  0.9698553703581398  0.8226152150418113  0.48748207674267463  1.0000
  O   O4        1.0  0.9722467043609319  0.4033866960052994  0.5037224518859158  1.0000
  O   O5        1.0  0.8422472254359623  0.8163290677065975  0.4759312371749558  1.0000
  O   O6        1.0  0.8441728225120904  0.6008866063955483  0.6936618402012393  1.0000
  O   O7        1.0  0.842712994969731  0.6125464022327853  0.2744392282015906  1.0000
  O   O8        1.0  0.8446385445887203  0.3971022059668887  0.4921699066420957  1.0000
