data_image0
_chemical_formula_structural       NC8NC6H8C7NH5C6SCH8Zn2C4O8
_chemical_formula_sum              "N3 C32 H21 S1 Zn2 O8"
_cell_length_a       17.457602349358154
_cell_length_b       10.302819778424748
_cell_length_c       10.302812801239593
_cell_angle_alpha    85.56070422118889
_cell_angle_beta     92.87590592568559
_cell_angle_gamma    91.68806980205999

_space_group_name_H-M_alt    "P 1"
_space_group_IT_number       1

loop_
  _space_group_symop_operation_xyz
  'x, y, z'

loop_
  _atom_site_type_symbol
  _atom_site_label
  _atom_site_symmetry_multiplicity
  _atom_site_fract_x
  _atom_site_fract_y
  _atom_site_fract_z
  _atom_site_occupancy
  N   N1        1.0  0.7224250345995193  0.4523852112166298  0.6269383544012799  1.0000
  C   C1        1.0  0.6613471019949267  0.4064742485730197  0.6163259694647476  1.0000
  C   C2        1.0  0.5853635708013479  0.3493667236331508  0.6031337015599527  1.0000
  C   C3        1.0  0.5268349393420164  0.38951597113482106  0.6780078031547243  1.0000
  C   C4        1.0  0.4522894908758678  0.3345260511990309  0.6654297799954283  1.0000
  C   C5        1.0  0.3901699629259022  0.37691774285241175  0.744724293292498  1.0000
  C   C6        1.0  0.3156233012585047  0.39538054314295423  0.6889783402639245  1.0000
  C   C7        1.0  0.2570946669523238  0.43534592193094834  0.7639603615433643  1.0000
  C   C8        1.0  0.1811098500454959  0.4544143923603874  0.705999645062459  1.0000
  N   N2        1.0  0.12003097375970029  0.46973906486512473  0.6593993800116666  1.0000
  C   C9        1.0  0.2726205315917564  0.45709156545825436  0.8951966933724127  1.0000
  C   C10       1.0  0.3463824892346126  0.4390176304727822  0.9513301225158108  1.0000
  C   C11       1.0  0.4048995186045066  0.3992322492122373  0.8768056784570617  1.0000
  C   C12       1.0  0.4375613197559309  0.23870967735954718  0.5765451866225522  1.0000
  C   C13       1.0  0.49607823305408016  0.1988390226245642  0.5020709624321444  1.0000
  C   C14       1.0  0.5698389158413687  0.2539412821431162  0.5151987622601997  1.0000
  H   H1        1.0  0.5391789770119001  0.4646868606735908  0.7446175422236898  1.0000
  H   H2        1.0  0.3032783039372516  0.3804151296486833  0.5869859789013305  1.0000
  H   H3        1.0  0.2277595575729842  0.48796463742314433  0.9540140084369286  1.0000
  H   H4        1.0  0.3582137755455785  0.45554022258967075  0.052949340956284896  1.0000
  H   H5        1.0  0.4613851312283092  0.3842449827021799  0.922897614654854  1.0000
  H   H6        1.0  0.38107666517768846  0.19338820023709324  0.5658966962033611  1.0000
  H   H7        1.0  0.4842480052243516  0.12478425136428606  0.4342632794653052  1.0000
  H   H8        1.0  0.6146999337500618  0.22219878056837872  0.4568924111840922  1.0000
  C   C15       1.0  0.9212316650178035  0.07980925117401871  0.6431747543049011  1.0000
  C   C16       1.0  0.87644978525479  0.06795571606705009  0.7532071503977371  1.0000
  C   C17       1.0  0.8541703588135092  0.9449558895220176  0.8079493066515948  1.0000
  C   C18       1.0  0.8764498471750721  0.8326547089589444  0.7532071597076431  1.0000
  C   C19       1.0  0.9212316776638811  0.8423052789082452  0.6431747939249102  1.0000
  C   C20       1.0  0.9433886564495615  0.9663771704301662  0.588733510671092  1.0000
  C   C21       1.0  0.8082624413704037  0.93393339028249  0.9207486888537  1.0000
  N   N3        1.0  0.7713674978695717  0.9250749379525548  0.011402388715959444  1.0000
  H   H9        1.0  0.9381939484587983  0.411621512398904  0.6014966044873904  1.0000
  H   H10       1.0  0.85878831109734  0.15413948613719608  0.7966024916274979  1.0000
  H   H11       1.0  0.8587884068504501  0.7379898861920662  0.7966024686022839  1.0000
  H   H12       1.0  0.9779228596967497  0.9746687536911677  0.5038804910325576  1.0000
  H   H13       1.0  0.938194018841553  0.5186384348838828  0.6014967089071717  1.0000
  C   C22       1.0  0.9212316929823591  0.4610572968612796  0.2619263217372134  1.0000
  C   C23       1.0  0.8953578858564438  0.5893989983967625  0.24861668154646255  1.0000
  C   C24       1.0  0.8822861030267084  0.6530576547328018  0.12500249146802744  1.0000
  C   C25       1.0  0.8953578166905827  0.5893988590921795  0.013465506210423417  1.0000
  C   C26       1.0  0.9212316432183904  0.4610572859400164  0.024423221303961684  1.0000
  C   C27       1.0  0.9340184742209404  0.39750123939671145  0.14918129941333325  1.0000
  S   S1        1.0  0.8493860566213719  0.8171361611721164  0.10950517663539072  1.0000
  C   C28       1.0  0.7484684509139459  0.7673710817766253  0.10477827629163272  1.0000
  H   H14       1.0  0.9309537710883409  0.4126736425916069  0.5942541182153009  1.0000
  H   H15       1.0  0.8850797620449424  0.6403766459431823  0.3338966176535423  1.0000
  H   H16       1.0  0.8850796084421988  0.6403764522191189  0.9185462921311225  1.0000
  H   H17       1.0  0.9539621761449014  0.29849638230791986  0.15854006010736232  1.0000
  H   H18       1.0  0.9309523425595918  0.4126729062075243  0.7012384160744154  1.0000
  H   H19       1.0  0.7348639435475235  0.7090210036295297  0.020021262188832045  1.0000
  H   H20       1.0  0.7348642721389902  0.7090223300513012  0.1962559810490072  1.0000
  H   H21       1.0  0.7129602671350203  0.8554331601794087  0.09494284691732635  1.0000
  Zn  Zn1       1.0  0.8371655199119216  0.45738967687135945  0.6363134012955673  1.0000
  Zn  Zn2       1.0  0.005290474196594452  0.46472395462584304  0.6500349622858053  1.0000
  C   C29       1.0  0.9212299429383255  0.45588510165316154  0.8802948537198081  1.0000
  C   C30       1.0  0.9212278870894771  0.4662302480557736  0.40605378712688545  1.0000
  C   C31       1.0  0.92122772439358  0.6981771642523384  0.6380009366299744  1.0000
  C   C32       1.0  0.9212300482649023  0.22393662312547336  0.6483477687511645  1.0000
  O   O1        1.0  0.9850291537574547  0.4707439938973057  0.459631542017211  1.0000
  O   O2        1.0  0.9850316264257885  0.45693692349886494  0.8371310723977434  1.0000
  O   O3        1.0  0.985028974833957  0.6525907907285302  0.6414769498807478  1.0000
  O   O4        1.0  0.9850317479796338  0.275090133452349  0.6552855625080565  1.0000
  O   O5        1.0  0.8574241887560866  0.6470234955434375  0.6310627963839921  1.0000
  O   O6        1.0  0.8574268403444425  0.45137118814347943  0.8267168496772181  1.0000
  O   O7        1.0  0.8574243677272287  0.46517821330196796  0.4492157583933343  1.0000
  O   O8        1.0  0.8574269619462644  0.2695243435708867  0.6448698762210059  1.0000
