data_image0
_chemical_formula_structural       NC8NC6H8C8H10C6H6Zn2C4O8
_chemical_formula_sum              "N2 C32 H24 Zn2 O8"
_cell_length_a       17.457602349358154
_cell_length_b       9.275653711864159
_cell_length_c       10.681121600428288
_cell_angle_alpha    85.7433101150016
_cell_angle_beta     92.87590736930572
_cell_angle_gamma    91.13236207428555

_space_group_name_H-M_alt    "P 1"
_space_group_IT_number       1

loop_
  _space_group_symop_operation_xyz
  'x, y, z'

loop_
  _atom_site_type_symbol
  _atom_site_label
  _atom_site_symmetry_multiplicity
  _atom_site_fract_x
  _atom_site_fract_y
  _atom_site_fract_z
  _atom_site_occupancy
  N   N1        1.0  0.7142241304043273  0.6125053050156863  0.6793955537063596  1.0000
  C   C1        1.0  0.6534054335631216  0.5615328247093279  0.6690381169632229  1.0000
  C   C2        1.0  0.5777443594032522  0.4981294015898645  0.6561626818024484  1.0000
  C   C3        1.0  0.5189890266616322  0.542704963300132  0.72849060848229  1.0000
  C   C4        1.0  0.4447540781969434  0.48165260349043004  0.7162132400821926  1.0000
  C   C5        1.0  0.3823951870881231  0.5287178309999037  0.7928109207395104  1.0000
  C   C6        1.0  0.3077442744836843  0.5492160838769571  0.7390880329558978  1.0000
  C   C7        1.0  0.24898997711028953  0.5935875060235873  0.8115195726751405  1.0000
  C   C8        1.0  0.1728974893198736  0.6147582018101134  0.7556619602317844  1.0000
  N   N2        1.0  0.11173208165542961  0.6317723603814343  0.7107525686805529  1.0000
  C   C9        1.0  0.2643930571624532  0.617730537397045  0.9381649926759061  1.0000
  C   C10       1.0  0.3382570700231493  0.5976640208410222  0.9922626570111861  1.0000
  C   C11       1.0  0.3969987461125823  0.5534924403290629  0.9202729619341854  1.0000
  C   C12       1.0  0.4305669321797216  0.37527281591712947  0.6302244284984648  1.0000
  C   C13       1.0  0.4893089736942632  0.3310065608435697  0.5582829499755511  1.0000
  C   C14       1.0  0.5627585221639566  0.3921836453073475  0.5710909186978133  1.0000
  H   H1        1.0  0.5309086134652723  0.6261631752783572  0.7929391280245885  1.0000
  H   H2        1.0  0.29548377768217293  0.5326007804172681  0.6406686657653577  1.0000
  H   H3        1.0  0.21935775947227293  0.652007257730544  0.9949804066501535  1.0000
  H   H4        1.0  0.3499950632104309  0.6160081761834777  0.09032619891966931  1.0000
  H   H5        1.0  0.4535689849465677  0.5368528855005985  0.964692917558116  1.0000
  H   H6        1.0  0.3743381848384519  0.32495480976699365  0.619833717734593  1.0000
  H   H7        1.0  0.4778968945581734  0.24878751504245877  0.4926818556320811  1.0000
  H   H8        1.0  0.6077987729801702  0.35694164394473726  0.5147660811428056  1.0000
  C   C15       1.0  0.9151345086155271  0.198854199753576  0.6940755477391407  1.0000
  C   C16       1.0  0.8971333926983169  0.2813876500373269  0.5809690487143107  1.0000
  C   C17       1.0  0.8722164873617556  0.2149529348880863  0.4721635410454097  1.0000
  C   C18       1.0  0.866441643033783  0.06407931215621088  0.47570937993136586  1.0000
  C   C19       1.0  0.8852704875074422  0.9803985161022125  0.5864677950482156  1.0000
  C   C20       1.0  0.9108290822931728  0.04541266140866851  0.6960839306296751  1.0000
  C   C21       1.0  0.8542513751506252  0.3048703108036275  0.35142651596943675  1.0000
  C   C22       1.0  0.9260005374213414  0.33018690591429123  0.27649936331286873  1.0000
  H   H9        1.0  0.9847607125991591  0.46677283247310775  0.8731418499054275  1.0000
  H   H10       1.0  0.9008059565585493  0.3983843440015977  0.5778849365159944  1.0000
  H   H11       1.0  0.8480745544637467  0.010948230610492882  0.3921187552105667  1.0000
  H   H12       1.0  0.8817235167453442  0.863755478006848  0.5854235818779625  1.0000
  H   H13       1.0  0.9180466555620018  0.7466552813209205  0.9031614270949366  1.0000
  H   H14       1.0  0.8095360373040271  0.24982259009456032  0.29344432604617765  1.0000
  H   H15       1.0  0.8309735358124521  0.41090544070462043  0.3717865966029703  1.0000
  H   H16       1.0  0.9706991543621865  0.3885498858968819  0.3317266780038082  1.0000
  H   H17       1.0  0.9490232809093272  0.22539630849750836  0.2525470926683693  1.0000
  H   H18       1.0  0.9115347033413106  0.39654479618616834  0.18795465351472496  1.0000
  C   C23       1.0  0.9129818162533022  0.6221334298306815  0.32733452531872453  1.0000
  C   C24       1.0  0.8584892533009763  0.539305960155207  0.26139109022384033  1.0000
  C   C25       1.0  0.8584892049419262  0.539306050259156  0.1305089467125442  1.0000
  C   C26       1.0  0.9129817555959129  0.6221334975663035  0.06282495640614982  1.0000
  C   C27       1.0  0.9674293433192296  0.704892336933787  0.12876407906209608  1.0000
  C   C28       1.0  0.9674293336194684  0.7048923141069077  0.25965637689799137  1.0000
  H   H19       1.0  0.9680882384868779  0.7058947343274125  0.6251641458751476  1.0000
  H   H20       1.0  0.8157754099627399  0.4743818749645039  0.310884193255371  1.0000
  H   H21       1.0  0.8157753935984716  0.4743819420381423  0.08238016292715011  1.0000
  H   H22       1.0  0.010148764166285407  0.7698249749717783  0.07931577434180137  1.0000
  H   H23       1.0  0.010148725777700873  0.7698249225688047  0.3077401386578096  1.0000
  H   H24       1.0  0.9680884804312142  0.7058942437339  0.7632351378543483  1.0000
  Zn  Zn1       1.0  0.8289363581820213  0.6180614955204884  0.688451732308305  1.0000
  Zn  Zn2       1.0  0.9970198997317685  0.626204351766074  0.7017066147412472  1.0000
  C   C29       1.0  0.9130092805672193  0.6163910642461641  0.9237877754394292  1.0000
  C   C30       1.0  0.9129488035639913  0.6278766906787541  0.4663708435807772  1.0000
  C   C31       1.0  0.9116389578339158  0.8853949289764145  0.6907137142645314  1.0000
  C   C32       1.0  0.9143190777496671  0.3588710913760529  0.6994449628893449  1.0000
  O   O1        1.0  0.9767245842290478  0.6328880645356956  0.5180628459878946  1.0000
  O   O2        1.0  0.9768050242803294  0.6175588424639193  0.8821555590309282  1.0000
  O   O3        1.0  0.9756976114660779  0.8347828235948649  0.6939465413403625  1.0000
  O   O4        1.0  0.9778319396353357  0.4156640909374405  0.7062717652837893  1.0000
  O   O5        1.0  0.8481242609197827  0.8286017535719332  0.6838865772359388  1.0000
  O   O6        1.0  0.8492316649229903  0.6113795042362498  0.8720955322630106  1.0000
  O   O7        1.0  0.8491512251782516  0.6267086760804188  0.5080013134822532  1.0000
  O   O8        1.0  0.8502585806338318  0.409484692172285  0.6962103266429953  1.0000
