data_image0
_chemical_formula_structural       NC8NC6H8C6SCH8C7F3H5Zn2C4O8
_chemical_formula_sum              "N2 C32 H21 S1 F3 Zn2 O8"
_cell_length_a       17.457602349358154
_cell_length_b       10.302809429070853
_cell_length_c       9.272291681409872
_cell_angle_alpha    86.06047360622541
_cell_angle_beta     93.27365386630078
_cell_angle_gamma    91.68806441137123

_space_group_name_H-M_alt    "P 1"
_space_group_IT_number       1

loop_
  _space_group_symop_operation_xyz
  'x, y, z'

loop_
  _atom_site_type_symbol
  _atom_site_label
  _atom_site_symmetry_multiplicity
  _atom_site_fract_x
  _atom_site_fract_y
  _atom_site_fract_z
  _atom_site_occupancy
  N   N1        1.0  0.7166069621249925  0.4401262193078286  0.47474392363531304  1.0000
  C   C1        1.0  0.6554840651124856  0.394120449210954  0.46295523791164506  1.0000
  C   C2        1.0  0.5794446386139183  0.33689506898107324  0.4483007091527893  1.0000
  C   C3        1.0  0.5212332639143363  0.37771292938177625  0.531474070600283  1.0000
  C   C4        1.0  0.44663452271520565  0.32261064106471515  0.5175018709512351  1.0000
  C   C5        1.0  0.3848509817139298  0.3657104190069531  0.6055856152139245  1.0000
  C   C6        1.0  0.3100681102234695  0.383675466388417  0.5436606134640476  1.0000
  C   C7        1.0  0.2518571899691843  0.42431042153527376  0.6269538567613073  1.0000
  C   C8        1.0  0.1756267787292814  0.4428613634109668  0.5625686005519657  1.0000
  N   N2        1.0  0.11435044523989901  0.4577699443003631  0.5108030222977866  1.0000
  C   C9        1.0  0.2679391324993103  0.4472279338462253  0.7727368071376599  1.0000
  C   C10       1.0  0.3419389417692464  0.4296552120482844  0.8350922339360218  1.0000
  C   C11       1.0  0.4001401959387003  0.38920434044895713  0.7523072870393732  1.0000
  C   C12       1.0  0.4315297324368931  0.22600049433752933  0.41876506229737087  1.0000
  C   C13       1.0  0.4897310833331253  0.18546479760511647  0.3360359018008152  1.0000
  C   C14       1.0  0.5635473883796656  0.24068433473187634  0.3506188169679094  1.0000
  H   H1        1.0  0.5338595381891245  0.45347867237634576  0.6054670176804182  1.0000
  H   H2        1.0  0.2972909481833455  0.3677993187549169  0.4303631203982208  1.0000
  H   H3        1.0  0.2233273794180641  0.4786262336837841  0.8380736019560551  1.0000
  H   H4        1.0  0.354200811611073  0.44708520797912543  0.94797522357207  1.0000
  H   H5        1.0  0.45682111183689894  0.3746286268815393  0.8035081917183466  1.0000
  H   H6        1.0  0.3749999604278439  0.18058388796175073  0.4069362689597882  1.0000
  H   H7        1.0  0.4776135428613296  0.11080447723359321  0.26071222701265473  1.0000
  H   H8        1.0  0.6081613504777263  0.20842116694902524  0.2858496230303289  1.0000
  C   C15       1.0  0.9154824124071821  0.06769486195172325  0.4927800728199865  1.0000
  C   C16       1.0  0.9592723425224149  0.07630284431835754  0.3698953949653503  1.0000
  C   C17       1.0  0.9808495358187336  0.9635962116413188  0.30856942314479197  1.0000
  C   C18       1.0  0.9592722454551497  0.8411516814820066  0.36989530868615894  1.0000
  C   C19       1.0  0.9154823817880298  0.8301917219029784  0.4927800624757106  1.0000
  C   C20       1.0  0.8937814383896834  0.9440999803616376  0.5535927493230495  1.0000
  S   S1        1.0  0.0369398720859726  0.9760924284109578  0.15174742763168148  1.0000
  C   C21       1.0  0.9533173694078179  0.9797443707290515  0.02518915651987408  1.0000
  H   H9        1.0  0.8989547474186484  0.3917648790208075  0.5390560646927474  1.0000
  H   H10       1.0  0.9766652192286871  0.17028871861464756  0.32108359521203056  1.0000
  H   H11       1.0  0.9766650494377597  0.7549383167104475  0.32108346747433747  1.0000
  H   H12       1.0  0.8599917380527318  0.9365535575351378  0.6483632190463116  1.0000
  H   H13       1.0  0.8989534877405928  0.4987490426844129  0.5390543651675996  1.0000
  H   H14       1.0  0.9181710962989916  0.8888814636815424  0.04122705611177557  1.0000
  H   H15       1.0  0.9181718130422765  0.06511645301624314  0.04122659702185527  1.0000
  H   H16       1.0  0.9726994809586842  0.9876485795619934  0.9129938317610762  1.0000
  C   C22       1.0  0.913866978168147  0.4455390167439919  0.06927287963159556  1.0000
  C   C23       1.0  0.9654829739280111  0.3661201350058132  0.15417172568735094  1.0000
  C   C24       1.0  0.02126935777320016  0.2985198195587788  0.09043225980176905  1.0000
  C   C25       1.0  0.027672621462866642  0.3101227304207179  0.9401204337330409  1.0000
  C   C26       1.0  0.9745274032390181  0.3851726276123342  0.8539127524982009  1.0000
  C   C27       1.0  0.917097798822927  0.452347587410284  0.9162871632997511  1.0000
  C   C28       1.0  0.08659377331312146  0.23410832778299095  0.8708768526480704  1.0000
  F   F1        1.0  0.15085538341190974  0.2150374488584159  0.9636219030935358  1.0000
  F   F2        1.0  0.10956491600895779  0.30009882577606795  0.7448869648580989  1.0000
  F   F3        1.0  0.05497359582126826  0.11439769195384963  0.8380511455344668  1.0000
  H   H17       1.0  0.8057905909121732  0.7030954963123983  0.13956537849883643  1.0000
  H   H18       1.0  0.9637116329895493  0.35829039267065044  0.2710578254709257  1.0000
  H   H19       1.0  0.0599311305350958  0.23790544737233588  0.1591506510171543  1.0000
  H   H20       1.0  0.976715539003905  0.38873273688122434  0.7371233336722889  1.0000
  H   H21       1.0  0.7431713659533115  0.5690044545583219  0.7871768033103419  1.0000
  Zn  Zn1       1.0  0.8313871714145632  0.445214402502184  0.48515812758013976  1.0000
  Zn  Zn2       1.0  0.9995702667385518  0.45267121142157984  0.5004006256914364  1.0000
  C   C29       1.0  0.9164854013195843  0.4458884060269448  0.7561832038291343  1.0000
  C   C30       1.0  0.9144738739275522  0.4519989285860706  0.22937585744039724  1.0000
  C   C31       1.0  0.9154565118911175  0.6860172018728403  0.4870326762790407  1.0000
  C   C32       1.0  0.9155027062602402  0.21186857098371847  0.4985264566783707  1.0000
  O   O1        1.0  0.9785021618706206  0.45699109011023875  0.288892327948554  1.0000
  O   O2        1.0  0.9801041896519904  0.4465548071708869  0.7082350215470707  1.0000
  O   O3        1.0  0.9792724937601658  0.6404618205663217  0.49089398828735864  1.0000
  O   O4        1.0  0.9793337999604836  0.26308408258849925  0.506233247873235  1.0000
  O   O5        1.0  0.8516235807999659  0.6348015287919737  0.4793255001892387  1.0000
  O   O6        1.0  0.8524552763949038  0.4408960746097048  0.6966664565519678  1.0000
  O   O7        1.0  0.8508532420507421  0.45133229837130595  0.27732202903497627  1.0000
  O   O8        1.0  0.8516848805499013  0.25742528243258045  0.4946630570855861  1.0000
