data_image0
_chemical_formula_structural       NC9NC5H8C6FH5C7NH5Zn2C4O8
_chemical_formula_sum              "N3 C31 H18 F1 Zn2 O8"
_cell_length_a       17.807436237873137
_cell_length_b       9.275642734913903
_cell_length_c       10.302823150593486
_cell_angle_alpha    85.47815829151409
_cell_angle_beta     89.3921433004221
_cell_angle_gamma    88.99238798493903

_space_group_name_H-M_alt    "P 1"
_space_group_IT_number       1

loop_
  _space_group_symop_operation_xyz
  'x, y, z'

loop_
  _atom_site_type_symbol
  _atom_site_label
  _atom_site_symmetry_multiplicity
  _atom_site_fract_x
  _atom_site_fract_y
  _atom_site_fract_z
  _atom_site_occupancy
  N   N1        1.0  0.7158633561128127  0.5407882847018797  0.5554511406655489  1.0000
  C   C1        1.0  0.6550615362349803  0.5017183978213335  0.5444848042543899  1.0000
  C   C2        1.0  0.5794307550384439  0.45311976114307195  0.530843872387355  1.0000
  C   C3        1.0  0.5609045109887959  0.3738307799224603  0.4259839531596237  1.0000
  C   C4        1.0  0.48747025281768375  0.3265214587701757  0.4126570557223477  1.0000
  C   C5        1.0  0.4315112211447401  0.35808196063595266  0.5041582165448066  1.0000
  C   C6        1.0  0.3534702344358415  0.3079319240412388  0.49007704773795635  1.0000
  C   C7        1.0  0.2917917409609865  0.3987028520093243  0.5158820787358993  1.0000
  C   C8        1.0  0.2182139414630902  0.3511681044197579  0.5025691702690489  1.0000
  C   C9        1.0  0.1555017477495113  0.4449271471142402  0.5287338514743487  1.0000
  N   N2        1.0  0.1050940967181601  0.520302930807915  0.5497695378877019  1.0000
  C   C10       1.0  0.2057295195641843  0.21257600260739373  0.4634262856875533  1.0000
  C   C11       1.0  0.2665505588652175  0.12178969496149805  0.4376128889358941  1.0000
  C   C12       1.0  0.3400065238421753  0.1688863983989135  0.450723929505205  1.0000
  C   C13       1.0  0.45073188010583765  0.4379198185976505  0.609236536177693  1.0000
  C   C14       1.0  0.5242178502642835  0.48501775239350375  0.6224081246764983  1.0000
  H   H1        1.0  0.6031625517076833  0.34886670494406635  0.3543283881881625  1.0000
  H   H2        1.0  0.47423084557267975  0.26692043543467614  0.3298452911803169  1.0000
  H   H3        1.0  0.3008827244784933  0.5069145998129847  0.5446001440714319  1.0000
  H   H4        1.0  0.149057230494728  0.17478700878080522  0.4528870795705726  1.0000
  H   H5        1.0  0.256766225725549  0.014488484238334376  0.40769352996100583  1.0000
  H   H6        1.0  0.386246998745649  0.09589205685614366  0.4317826291745448  1.0000
  H   H7        1.0  0.4091874361282608  0.46228539629046184  0.6821870200649063  1.0000
  H   H8        1.0  0.5379930408467143  0.5459739578794656  0.7041767142123319  1.0000
  C   C15       1.0  0.9081597839988033  0.1071237038982038  0.5532024493123615  1.0000
  C   C16       1.0  0.8936223857333527  0.1912016695406369  0.4361292358921598  1.0000
  C   C17       1.0  0.8861696082665198  0.12631689207094965  0.3193531025838061  1.0000
  C   C18       1.0  0.8931980526909256  0.9766562209802531  0.3175852552245584  1.0000
  C   C19       1.0  0.9063780126685587  0.8910602095279418  0.43286213719584743  1.0000
  C   C20       1.0  0.9128047983069251  0.9539560678061474  0.5520293922934332  1.0000
  F   F1        1.0  0.8729864865378808  0.20911019050924695  0.20724649329416156  1.0000
  H   H9        1.0  0.9857701216148814  0.18218485245901994  0.8420607080498728  1.0000
  H   H10       1.0  0.8897875858064156  0.30802887515705035  0.4345236547635436  1.0000
  H   H11       1.0  0.8877142729761164  0.9264834938208062  0.22686662418813341  1.0000
  H   H12       1.0  0.9097697543770465  0.7747217762886174  0.42924450965409267  1.0000
  H   H13       1.0  0.962057046725554  0.6539396580883166  0.7482018211609931  1.0000
  C   C21       1.0  0.9104822924396073  0.5305399072282344  0.1713678513218866  1.0000
  C   C22       1.0  0.8318362272739408  0.5451329124662094  0.17067274335443772  1.0000
  C   C23       1.0  0.7927090678727179  0.5523929517657815  0.05322441300342162  1.0000
  C   C24       1.0  0.8318362121533482  0.5451328190827989  0.9353717498494865  1.0000
  C   C25       1.0  0.9104822919500722  0.5305398997609874  0.9338640179537361  1.0000
  C   C26       1.0  0.9493944066755748  0.5233196108121638  0.05241487643182241  1.0000
  C   C27       1.0  0.7120853463919865  0.5673526864351444  0.053640920960668304  1.0000
  N   N3        1.0  0.6472902182625193  0.5793756015452252  0.05397562234226405  1.0000
  H   H14       1.0  0.9402717887749319  0.5250127401978408  0.49895336968872894  1.0000
  H   H15       1.0  0.8008192203344403  0.5508882065996057  0.2612572400556801  1.0000
  H   H16       1.0  0.8008192495391069  0.550888098867699  0.845107703270203  1.0000
  H   H17       1.0  0.010043419402580467  0.5120660353928297  0.052101575637512276  1.0000
  H   H18       1.0  0.9402717623417455  0.5250125100597338  0.6059706700690608  1.0000
  Zn  Zn1       1.0  0.8281869177080938  0.5348728066792359  0.5538190665752427  1.0000
  Zn  Zn2       1.0  0.9927704524558321  0.5262066553390896  0.5514123014881167  1.0000
  C   C28       1.0  0.9104490921974759  0.5247957949323858  0.7897438882063899  1.0000
  C   C29       1.0  0.9105100851926885  0.5362853917588213  0.3154875784811133  1.0000
  C   C30       1.0  0.9119229120928641  0.793886932993531  0.5470776636437871  1.0000
  C   C31       1.0  0.9090361996342308  0.2671925243007016  0.5581538754813407  1.0000
  O   O1        1.0  0.9729779718927285  0.5349185790916271  0.3629421293717572  1.0000
  O   O2        1.0  0.9728962942007231  0.5195841114989144  0.7404622860825558  1.0000
  O   O3        1.0  0.9740855804334921  0.7368786529391858  0.54450760308031  1.0000
  O   O4        1.0  0.9717886295553276  0.3176240509231687  0.5588967158371665  1.0000
  O   O5        1.0  0.849168684444324  0.7434554140540586  0.546334653040673  1.0000
  O   O6        1.0  0.8479794077103504  0.5261626049696642  0.7422892644197743  1.0000
  O   O7        1.0  0.8480610851767398  0.5414970223135707  0.36476754687188984  1.0000
  O   O8        1.0  0.8468717427796965  0.3242024838322015  0.5607222306886157  1.0000
