data_image0
_chemical_formula_structural       NC8NC6H8C9H8C6FH5Zn2C4O8
_chemical_formula_sum              "N2 C33 H21 F1 Zn2 O8"
_cell_length_a       17.457602349358154
_cell_length_b       9.275152443626249
_cell_length_c       9.275646106892307
_cell_angle_alpha    84.75470407364851
_cell_angle_beta     92.91404810424501
_cell_angle_gamma    92.27213218982278

_space_group_name_H-M_alt    "P 1"
_space_group_IT_number       1

loop_
  _space_group_symop_operation_xyz
  'x, y, z'

loop_
  _atom_site_type_symbol
  _atom_site_label
  _atom_site_symmetry_multiplicity
  _atom_site_fract_x
  _atom_site_fract_y
  _atom_site_fract_z
  _atom_site_occupancy
  N   N1        1.0  0.7308134864800998  0.6305496526002099  0.46865749023056913  1.0000
  C   C1        1.0  0.6694611495579735  0.5796460916633093  0.45701092869275106  1.0000
  C   C2        1.0  0.593136294942579  0.516328298392666  0.44253319238584976  1.0000
  C   C3        1.0  0.5348588502307191  0.560067245889599  0.5256433136453436  1.0000
  C   C4        1.0  0.4599847563531281  0.4990958604927833  0.5118414671995974  1.0000
  C   C5        1.0  0.3981304854032363  0.5452749239243706  0.5998586611010965  1.0000
  C   C6        1.0  0.323683908586084  0.5664557636018304  0.5378206504526368  1.0000
  C   C7        1.0  0.2654053877950622  0.6099890672133026  0.6210513627513885  1.0000
  C   C8        1.0  0.1895238729832469  0.6318693108359816  0.5565490311277228  1.0000
  N   N2        1.0  0.1285280137409577  0.6494539362059331  0.504689345496194  1.0000
  C   C9        1.0  0.2810828112122486  0.6326056766032473  0.7668844594200463  1.0000
  C   C10       1.0  0.3547470591076025  0.6118524673290702  0.8293519682925208  1.0000
  C   C11       1.0  0.4130151219360468  0.5685138118553328  0.7466293823281462  1.0000
  C   C12       1.0  0.44467248724993413  0.3936497796485645  0.41333916082349265  1.0000
  C   C13       1.0  0.5029399362987105  0.35021574994150684  0.3306726903204549  1.0000
  C   C14       1.0  0.5770300255330991  0.4113054917165313  0.34508539202840405  1.0000
  H   H1        1.0  0.5476605965478039  0.6428298985446337  0.599449379955389  1.0000
  H   H2        1.0  0.3112326110980877  0.5510291313400779  0.42447778053608354  1.0000
  H   H3        1.0  0.2364152016609059  0.6662243725541797  0.832173781416278  1.0000
  H   H4        1.0  0.3666938272636215  0.629014290491938  0.9422748320198899  1.0000
  H   H5        1.0  0.46941963386372026  0.5513102232334814  0.7979228042069344  1.0000
  H   H6        1.0  0.387916922155929  0.3434018480273697  0.4016505064114697  1.0000
  H   H7        1.0  0.4906584216948749  0.2687078199915349  0.2555310861565565  1.0000
  H   H8        1.0  0.6216926042712664  0.376714393663131  0.2803670249562995  1.0000
  C   C15       1.0  0.9274107829677819  0.21624636604814373  0.487942267712707  1.0000
  C   C16       1.0  0.899707744149264  0.2989753074189787  0.36280882167169803  1.0000
  C   C17       1.0  0.8791378900024254  0.23388701679538126  0.23602580258712158  1.0000
  C   C18       1.0  0.8859480106552161  0.08491958465582261  0.23187359265468688  1.0000
  C   C19       1.0  0.9121502065522573  0.0004421982304552152  0.3558347379018387  1.0000
  C   C20       1.0  0.9319379994719207  0.06374633725894774  0.48541771203995077  1.0000
  C   C21       1.0  0.8651364020942716  0.018158966389255404  0.10062617455637213  1.0000
  C   C22       1.0  0.847711541581766  0.9622293230677313  0.9907271848663837  1.0000
  C   C23       1.0  0.8265699172599535  0.8943566128324145  0.857384070133159  1.0000
  H   H9        1.0  0.03772717452041219  0.30007048515182544  0.7861997686129547  1.0000
  H   H10       1.0  0.895665128497374  0.41530547569720344  0.36198854764109156  1.0000
  H   H11       1.0  0.8586053547471417  0.3001466990581536  0.14068392934235785  1.0000
  H   H12       1.0  0.9153806943280961  0.8843286159204893  0.3521008688636511  1.0000
  H   H13       1.0  0.003751080002645013  0.7697599723526329  0.6890860885518806  1.0000
  H   H14       1.0  0.8406012963776404  0.7781580745712458  0.8721397053946434  1.0000
  H   H15       1.0  0.7641054462448904  0.9041806094457389  0.8319649680049599  1.0000
  H   H16       1.0  0.8589643762707334  0.9492402399882708  0.7668899442575894  1.0000
  C   C24       1.0  0.9296092001759135  0.6445086494296015  0.06281801903527207  1.0000
  C   C25       1.0  0.999956710464744  0.662930458796358  0.14119994134674485  1.0000
  C   C26       1.0  0.06928060416592774  0.667757530639141  0.07202937484568794  1.0000
  C   C27       1.0  0.06947369660358382  0.6541027335758005  0.9237179407530225  1.0000
  C   C28       1.0  0.0003416002687848252  0.6381441360486781  0.8435058411059093  1.0000
  C   C29       1.0  0.9297395466641226  0.6354840377838855  0.9105419903049028  1.0000
  F   F1        1.0  0.13655530505031077  0.6839800604575117  0.1495143815836164  1.0000
  H   H17       1.0  0.7510330464011866  0.5188144689867205  0.16019836643723284  1.0000
  H   H18       1.0  0.0013575034109019057  0.6701716060266893  0.2572292513157619  1.0000
  H   H19       1.0  0.12329195901526013  0.6572643655633832  0.8702762769897183  1.0000
  H   H20       1.0  0.0020547588984380916  0.6313298895392614  0.7277520068623295  1.0000
  H   H21       1.0  0.808877381263146  0.5567635294696582  0.6249992109165667  1.0000
  Zn  Zn1       1.0  0.8455852885831877  0.6360010619912277  0.47906385082311687  1.0000
  Zn  Zn2       1.0  0.013756136004697606  0.6439905697582782  0.4942948373765448  1.0000
  C   C30       1.0  0.9296825104706017  0.6314410872247198  0.750320981341656  1.0000
  C   C31       1.0  0.9296607602856073  0.6485524510029628  0.2230380094253892  1.0000
  C   C32       1.0  0.931077419505519  0.9036118180817072  0.48014277565657726  1.0000
  C   C33       1.0  0.9282657846163126  0.37637998288073504  0.49321629203094575  1.0000
  O   O1        1.0  0.9934979908668541  0.6529352688608834  0.28258940060086446  1.0000
  O   O2        1.0  0.9934830559946546  0.6331210367085767  0.7023291442810433  1.0000
  O   O3        1.0  0.9946086025886162  0.8529022870942236  0.48415824924585626  1.0000
  O   O4        1.0  0.9923723869260722  0.4331540272238532  0.500760182183603  1.0000
  O   O5        1.0  0.8669689802733638  0.8468376018008781  0.47259850081087396  1.0000
  O   O6        1.0  0.8658434429253297  0.6270580859556956  0.6907693137203981  1.0000
  O   O7        1.0  0.8658583773130577  0.6468722862988869  0.2710278348187951  1.0000
  O   O8        1.0  0.8647327733306468  0.42709103318846475  0.48919872464879766  1.0000
