data_image0
_chemical_formula_structural       NC8NC6H8C6SCH8C9H8Zn2C4O8
_chemical_formula_sum              "N2 C34 H24 S1 Zn2 O8"
_cell_length_a       17.457602349358154
_cell_length_b       10.302809429070853
_cell_length_c       9.275155815604963
_cell_angle_alpha    86.05280374454347
_cell_angle_beta     93.22066324705655
_cell_angle_gamma    91.68806441137123

_space_group_name_H-M_alt    "P 1"
_space_group_IT_number       1

loop_
  _space_group_symop_operation_xyz
  'x, y, z'

loop_
  _atom_site_type_symbol
  _atom_site_label
  _atom_site_symmetry_multiplicity
  _atom_site_fract_x
  _atom_site_fract_y
  _atom_site_fract_z
  _atom_site_occupancy
  N   N1        1.0  0.7173606764512912  0.44034320848478004  0.4752786974116059  1.0000
  C   C1        1.0  0.6562436048876752  0.3943391154946234  0.46349414494797236  1.0000
  C   C2        1.0  0.5802114200113127  0.33711582007802954  0.4488447542494107  1.0000
  C   C3        1.0  0.5219589447024225  0.377921847895651  0.5319889540805189  1.0000
  C   C4        1.0  0.4473671079485248  0.3228215473209426  0.5180216532586814  1.0000
  C   C5        1.0  0.385540039843182  0.36590879410892607  0.606074514263615  1.0000
  C   C6        1.0  0.3107877689592022  0.3838826511947866  0.5441712241905812  1.0000
  C   C7        1.0  0.2525356888552828  0.42450575670367896  0.6274352638393861  1.0000
  C   C8        1.0  0.176337093971177  0.4430658582896456  0.5630725819027413  1.0000
  N   N2        1.0  0.1150863407489667  0.4579818035622383  0.5113251533049996  1.0000
  C   C9        1.0  0.2685455918768099  0.44740252933497504  0.773167100897719  1.0000
  C   C10       1.0  0.3425145878431776  0.429820936598607  0.8355006651068557  1.0000
  C   C11       1.0  0.4007567506845882  0.3893818423249169  0.7527447436436134  1.0000
  C   C12       1.0  0.4323111090491608  0.226225447296587  0.41931946295962375  1.0000
  C   C13       1.0  0.4905533410501695  0.1857015199534091  0.3366193083370681  1.0000
  C   C14       1.0  0.5643624398627857  0.24091898245492516  0.35119711055248537  1.0000
  H   H1        1.0  0.5345486549240505  0.4536770643504897  0.6059559583118812  1.0000
  H   H2        1.0  0.2980665935464917  0.36802262172672306  0.43091345463685826  1.0000
  H   H3        1.0  0.2239015522313256  0.47879153409248043  0.8384809878221304  1.0000
  H   H4        1.0  0.3547206758869162  0.4472348733329681  0.9483440765608646  1.0000
  H   H5        1.0  0.4574123653524071  0.374798844707078  0.8039276966477382  1.0000
  H   H6        1.0  0.3757871823084173  0.18081052373339945  0.40749481694430423  1.0000
  H   H7        1.0  0.47847302221851495  0.11105191543639092  0.2613220429673886  1.0000
  H   H8        1.0  0.6090084080417463  0.20866502900290174  0.28645062550095113  1.0000
  C   C15       1.0  0.9162272140635084  0.06790928523221451  0.49330852289774896  1.0000
  C   C16       1.0  0.9600778683703161  0.07653474967646212  0.37046692994160546  1.0000
  C   C17       1.0  0.9816853662589268  0.9638368414833695  0.309162459770536  1.0000
  C   C18       1.0  0.9600777713456863  0.8413835868523862  0.37046684369266414  1.0000
  C   C19       1.0  0.9162271834494677  0.8304061451849414  0.49330851255709995  1.0000
  C   C20       1.0  0.8944961891016397  0.9443057521816779  0.5540998777190538  1.0000
  S   S1        1.0  0.03785319704431833  0.9763553683924407  0.15239544800215232  1.0000
  C   C21       1.0  0.95429323388561  0.9800253154085724  0.025881549796385128  1.0000
  H   H9        1.0  0.8996766815194354  0.3919727188891462  0.5395682898314262  1.0000
  H   H10       1.0  0.9774948657166149  0.17052756813932146  0.32167224421319274  1.0000
  H   H11       1.0  0.9774946959888099  0.7551771662532936  0.32167211652028627  1.0000
  H   H12       1.0  0.8606596573756202  0.9367458469199704  0.6488371197353358  1.0000
  H   H13       1.0  0.8996754226812101  0.49895688279453293  0.5395665909021536  1.0000
  H   H14       1.0  0.9191390355536861  0.8891601267437753  0.041913826300949975  1.0000
  H   H15       1.0  0.919139752523833  0.06539511614378779  0.04191336737199158  1.0000
  H   H16       1.0  0.9737307874208913  0.9879454856079719  0.9137255621157565  1.0000
  C   C22       1.0  0.9148210584129958  0.44581368989249337  0.06994981660575417  1.0000
  C   C23       1.0  0.8547844500699514  0.5064121520418441  0.13232347665940947  1.0000
  C   C24       1.0  0.7998882168377147  0.5758670592766051  0.04606337542374184  1.0000
  C   C25       1.0  0.8040105411702365  0.5861837322406922  0.8958551893685645  1.0000
  C   C26       1.0  0.8625027837783393  0.524819232118672  0.8316331964669312  1.0000
  C   C27       1.0  0.9176333183089981  0.4525016860270361  0.9166671208122699  1.0000
  C   C28       1.0  0.7475630028717645  0.6586030154238982  0.8071418724471635  1.0000
  C   C29       1.0  0.7002983584404093  0.7192443843852125  0.7328301577994001  1.0000
  C   C30       1.0  0.6429512114659842  0.7928224548412115  0.642654026173846  1.0000
  H   H17       1.0  0.09295257357386078  0.3489654304484193  0.19905199270129104  1.0000
  H   H18       1.0  0.8513365555764016  0.5026603563568968  0.24880252735778807  1.0000
  H   H19       1.0  0.7545999325518647  0.6226561910117001  0.09677185817026168  1.0000
  H   H20       1.0  0.8639207616340068  0.5309870877446581  0.7146154134668521  1.0000
  H   H21       1.0  0.03648963026277041  0.3825877796996844  0.6538568608830366  1.0000
  H   H22       1.0  0.6585463153981708  0.7972443067256689  0.52806844499138  1.0000
  H   H23       1.0  0.5857933527905307  0.7440556074017481  0.6525000108366852  1.0000
  H   H24       1.0  0.6410089661981102  0.892985481806986  0.6789827162526629  1.0000
  Zn  Zn1       1.0  0.832135739500285  0.44542991011182487  0.48568925000682905  1.0000
  Zn  Zn2       1.0  0.0003113026535301877  0.4528845505710053  0.5009264039084538  1.0000
  C   C31       1.0  0.9171000407582284  0.4460653564991057  0.7566193014886764  1.0000
  C   C32       1.0  0.9153488383374093  0.4522508248291588  0.2299966603165733  1.0000
  C   C33       1.0  0.9162041536574945  0.686232442801505  0.4875631414656101  1.0000
  C   C34       1.0  0.9162446683069391  0.21208217676010466  0.49905289200238556  1.0000
  O   O1        1.0  0.9793477158639793  0.45723451929645065  0.289492263608937  1.0000
  O   O2        1.0  0.9807425229689708  0.44673857894785773  0.7086879304364799  1.0000
  O   O3        1.0  0.9800182274363379  0.6406765121689242  0.4914230996498481  1.0000
  O   O4        1.0  0.980071953650656  0.26329659196520283  0.5067569811002746  1.0000
  O   O5        1.0  0.8523750311130674  0.6350178661750785  0.4798586676077321  1.0000
  O   O6        1.0  0.8530993263868131  0.4410814921781172  0.6971234215243423  1.0000
  O   O7        1.0  0.8517045135758555  0.45157737359563344  0.277926021386258  1.0000
  O   O8        1.0  0.8524287517183974  0.2576394378320175  0.4951908469656141  1.0000
