data_image0
_chemical_formula_structural       NC8NC6H8C6NH7C7OH6Zn2C4O8
_chemical_formula_sum              "N3 C31 H21 O9 Zn2"
_cell_length_a       17.457602349358154
_cell_length_b       9.274771166103582
_cell_length_c       9.274081674992354
_cell_angle_alpha    85.96953540669611
_cell_angle_beta     92.53340075860572
_cell_angle_gamma    92.29117059398062

_space_group_name_H-M_alt    "P 1"
_space_group_IT_number       1

loop_
  _space_group_symop_operation_xyz
  'x, y, z'

loop_
  _atom_site_type_symbol
  _atom_site_label
  _atom_site_symmetry_multiplicity
  _atom_site_fract_x
  _atom_site_fract_y
  _atom_site_fract_z
  _atom_site_occupancy
  N   N1        1.0  0.7359941992524526  0.6007172145265363  0.4738837683576671  1.0000
  C   C1        1.0  0.6746677968115639  0.5495905256248153  0.4621732393107285  1.0000
  C   C2        1.0  0.5983751726010272  0.4859953663587324  0.4476159199783505  1.0000
  C   C3        1.0  0.5398446873870208  0.531345544414322  0.5306590426020721  1.0000
  C   C4        1.0  0.4650011895674428  0.47010977801015463  0.5167803297532907  1.0000
  C   C5        1.0  0.4028789075537387  0.5179952123791287  0.6047263359743051  1.0000
  C   C6        1.0  0.3286326658371934  0.5379701416355167  0.5428265297473289  1.0000
  C   C7        1.0  0.2701006801384156  0.5831170296570349  0.6259897053007808  1.0000
  C   C8        1.0  0.1944274280906766  0.6037434692037842  0.5616308353822612  1.0000
  N   N2        1.0  0.1335990100057173  0.6203200401878639  0.5098864810295658  1.0000
  C   C9        1.0  0.2853225782387711  0.608564077172346  0.7716165519814973  1.0000
  C   C10       1.0  0.3587852262522256  0.5890250928919678  0.833945840481181  1.0000
  C   C11       1.0  0.4173051914458152  0.5440827082219981  0.7512902624210318  1.0000
  C   C12       1.0  0.4499774205663335  0.3627572481757486  0.4182696034697755  1.0000
  C   C13       1.0  0.5084965745566212  0.3177205845874054  0.3356698909921241  1.0000
  C   C14       1.0  0.5825541646862423  0.3790865619033639  0.35015863387845836  1.0000
  H   H1        1.0  0.5524310641486221  0.6155364431284753  0.6044775677724079  1.0000
  H   H2        1.0  0.31653586459992183  0.520343538119761  0.429647483741179  1.0000
  H   H3        1.0  0.24045602836554633  0.643448561347306  0.8368520264878752  1.0000
  H   H4        1.0  0.3703791930875093  0.6083786285428678  0.9467084238918093  1.0000
  H   H5        1.0  0.4735441307445674  0.5278761556561526  0.8024699220357534  1.0000
  H   H6        1.0  0.393248062300268  0.3122853322759851  0.40651812593173564  1.0000
  H   H7        1.0  0.4964349121919923  0.2347584005988319  0.2605201118310858  1.0000
  H   H8        1.0  0.6274136746046786  0.3432408201862016  0.28549156858582436  1.0000
  C   C15       1.0  0.9324424839463566  0.18681301593446475  0.4924575939369693  1.0000
  C   C16       1.0  0.9151759078432807  0.2681189863014857  0.3619997992922608  1.0000
  C   C17       1.0  0.9050749573183979  0.2014127949624458  0.23137306615646147  1.0000
  C   C18       1.0  0.9122836317224613  0.05201688931257187  0.23026850881747918  1.0000
  C   C19       1.0  0.9281368317791754  0.9693059900362624  0.3588276925441416  1.0000
  C   C20       1.0  0.9371579689282277  0.034213613190953396  0.4913258268969629  1.0000
  N   N3        1.0  0.8882840146564888  0.28582905743076936  0.0995417163321426  1.0000
  H   H9        1.0  0.017836361043192195  0.2735015151048068  0.8156339874578136  1.0000
  H   H10       1.0  0.9113091979396645  0.38451611076317116  0.3610960084654997  1.0000
  H   H11       1.0  0.9048750872437433  0.9992728243571793  0.12979729658755823  1.0000
  H   H12       1.0  0.9315303597636114  0.8532724052361446  0.3550070081407568  1.0000
  H   H13       1.0  0.9915581360054698  0.7417466391382415  0.7108653592931133  1.0000
  H   H14       1.0  0.8829981617086394  0.3976419361736667  0.09901627286380066  1.0000
  H   H15       1.0  0.8809405631948065  0.2371265856309246  0.0014467758844183276  1.0000
  C   C21       1.0  0.9360739552580312  0.606794805360225  0.06874425897049363  1.0000
  C   C22       1.0  0.9987322818948104  0.6726613279523006  0.1428284734652201  1.0000
  C   C23       1.0  0.057105149144833556  0.7489580064555326  0.06749603474252752  1.0000
  C   C24       1.0  0.052806305083318295  0.7597786868329859  0.9159637771901208  1.0000
  C   C25       1.0  0.9917510846200738  0.6931687359192416  0.8408234083702966  1.0000
  C   C26       1.0  0.9335264905653349  0.6142317735652258  0.9150390878321497  1.0000
  C   C27       1.0  0.12156836037804708  0.8177849819788963  0.1486572463753495  1.0000
  O   O1        1.0  0.17474163996059366  0.8876110798447567  0.0840086506027331  1.0000
  H   H16       1.0  0.7537740077948982  0.5041049490907756  0.16377838613253748  1.0000
  H   H17       1.0  0.0012374990106998052  0.667430458344564  0.26010450729295  1.0000
  H   H18       1.0  0.0970495442766921  0.8186125671096602  0.855257854023292  1.0000
  H   H19       1.0  0.9910809494179239  0.7005885271523768  0.7236752559615791  1.0000
  H   H20       1.0  0.8119685120256479  0.5392252242090609  0.6290747686864511  1.0000
  H   H21       1.0  0.12375396201768973  0.8087225124088642  0.26577921266573057  1.0000
  Zn  Zn1       1.0  0.8507343123559551  0.606370370353172  0.48428169861832693  1.0000
  Zn  Zn2       1.0  0.0188587813118275  0.6146551581659505  0.4995003638774924  1.0000
  C   C28       1.0  0.9339743140149348  0.607077927955509  0.755078799960571  1.0000
  C   C29       1.0  0.9356206252716652  0.6139495128037555  0.22870356772133338  1.0000
  C   C30       1.0  0.9362799681469238  0.8739861762298897  0.4857972660000749  1.0000
  C   C31       1.0  0.933314903892912  0.34703952886099754  0.4979851756277096  1.0000
  O   O2        1.0  0.9992708083399724  0.6194884370668703  0.2881627855448541  1.0000
  O   O3        1.0  0.9979267079403203  0.6078258738157696  0.707169783586173  1.0000
  O   O4        1.0  0.9997876882144114  0.8233576305964769  0.48972295984143654  1.0000
  O   O5        1.0  0.997409771079046  0.4039566868312443  0.5056094960407562  1.0000
  O   O6        1.0  0.8721832652161384  0.8170688388621914  0.4781725612540979  1.0000
  O   O7        1.0  0.8703222948162128  0.6015388149241736  0.6956193058519893  1.0000
  O   O8        1.0  0.8716664002020258  0.6132013126735802  0.2766105754321291  1.0000
  O   O9        1.0  0.869805362555336  0.3976695530671859  0.4940573939759012  1.0000
