data_image0
_chemical_formula_structural       NC8NC6H8C6NH7C6SCH8Zn2C4O8
_chemical_formula_sum              "N3 C31 H23 S1 Zn2 O8"
_cell_length_a       17.457602349358154
_cell_length_b       9.274771166103582
_cell_length_c       10.302812801239593
_cell_angle_alpha    85.45577702643503
_cell_angle_beta     92.87590592568559
_cell_angle_gamma    92.29117059398062

_space_group_name_H-M_alt    "P 1"
_space_group_IT_number       1

loop_
  _space_group_symop_operation_xyz
  'x, y, z'

loop_
  _atom_site_type_symbol
  _atom_site_label
  _atom_site_symmetry_multiplicity
  _atom_site_fract_x
  _atom_site_fract_y
  _atom_site_fract_z
  _atom_site_occupancy
  N   N1        1.0  0.7314004532886438  0.6141282902987244  0.624995895970003  1.0000
  C   C1        1.0  0.670038801110921  0.563104510198525  0.6144449135703363  1.0000
  C   C2        1.0  0.5937023580709005  0.4996372765180286  0.6013290227812353  1.0000
  C   C3        1.0  0.5354218400621866  0.544257695210095  0.6761494277095048  1.0000
  C   C4        1.0  0.4605365660791616  0.4831438909905741  0.6636449495249099  1.0000
  C   C5        1.0  0.398679009387641  0.5302564808482084  0.7428827670513027  1.0000
  C   C6        1.0  0.3242464437338228  0.5507753680118528  0.6871121213848457  1.0000
  C   C7        1.0  0.2659647866103627  0.5951914416788162  0.7620406919086684  1.0000
  C   C8        1.0  0.1900978086243278  0.6163834486857585  0.7040544727506008  1.0000
  N   N2        1.0  0.1291136354179503  0.6334147343518648  0.6574337120771019  1.0000
  C   C9        1.0  0.2816250345069468  0.6193587618478043  0.8932479405383791  1.0000
  C   C10       1.0  0.35527529923761847  0.5992720454920022  0.9494055422409082  1.0000
  C   C11       1.0  0.4135464637696153  0.5550560145540588  0.8749343082043168  1.0000
  C   C12       1.0  0.4452162710062669  0.3766570454252749  0.5748885035070059  1.0000
  C   C13       1.0  0.5034867924953476  0.3323462446380936  0.5004676033857591  1.0000
  C   C14       1.0  0.577587995033234  0.393584898998786  0.5135217079931813  1.0000
  H   H1        1.0  0.5482304171680502  0.6277998977018218  0.7426586312407606  1.0000
  H   H2        1.0  0.3118089634742076  0.5341433497906776  0.5851397751624461  1.0000
  H   H3        1.0  0.2369548492300073  0.653669975210555  0.9520239651391289  1.0000
  H   H4        1.0  0.3672086915056909  0.6176346556032661  0.051002662929273246  1.0000
  H   H5        1.0  0.46993945840826196  0.5383997096830759  0.9210462887691062  1.0000
  H   H6        1.0  0.3884515397447573  0.3262883981707365  0.5643006272311393  1.0000
  H   H7        1.0  0.4911989225932163  0.25004445555371935  0.43275896323049623  1.0000
  H   H8        1.0  0.6222528513178119  0.35830743307518587  0.45525781017901656  1.0000
  C   C15       1.0  0.9279046468540468  0.2000608702055251  0.6417305888259943  1.0000
  C   C16       1.0  0.9102453811542214  0.2825132666001171  0.5241903914806478  1.0000
  C   C17       1.0  0.8997512325126642  0.2169549858721005  0.4064979835016922  1.0000
  C   C18       1.0  0.9069565821006274  0.0675687867582433  0.4055027966065221  1.0000
  C   C19       1.0  0.9231967567659002  0.9837281459075887  0.5213323786329689  1.0000
  C   C20       1.0  0.9326167251161906  0.04747141310915137  0.6407108864648314  1.0000
  N   N3        1.0  0.8825634657304144  0.30252974478059436  0.2877202368990104  1.0000
  H   H9        1.0  0.014271313717843181  0.2839093870655909  0.9329068820881177  1.0000
  H   H10       1.0  0.906375950759612  0.3989183333187609  0.5233760917109351  1.0000
  H   H11       1.0  0.8992456103125797  0.015707634265349713  0.3149799869484782  1.0000
  H   H12       1.0  0.9265787841495344  0.8677281361962964  0.5178900086313052  1.0000
  H   H13       1.0  0.9876777257655627  0.7530751880315766  0.83851217563445  1.0000
  H   H14       1.0  0.8772760311508636  0.4143472409713782  0.2872468214995627  1.0000
  H   H15       1.0  0.8749247397493944  0.2546893034420843  0.1993384066664292  1.0000
  C   C21       1.0  0.9302607032386294  0.6237661320137311  0.2599722650290144  1.0000
  C   C22       1.0  0.9051800193817061  0.7664004480847166  0.24649097724896918  1.0000
  C   C23       1.0  0.8925016329384049  0.837148371790392  0.12279164839827938  1.0000
  C   C24       1.0  0.9051799493549734  0.7664002932666516  0.011339802099239016  1.0000
  C   C25       1.0  0.9302606534071698  0.6237661198762345  0.022469164610368964  1.0000
  C   C26       1.0  0.9426547221290615  0.5531322329756958  0.14731224425894185  1.0000
  S   S1        1.0  0.8606155553354258  0.01949927775411009  0.10707489062738995  1.0000
  C   C27       1.0  0.7593904124675945  0.964192171966427  0.10241454741827405  1.0000
  H   H16       1.0  0.9396837810852957  0.5699942920489802  0.5923647710872091  1.0000
  H   H17       1.0  0.8952169261330211  0.8230551581726999  0.3317027345006607  1.0000
  H   H18       1.0  0.8952167713331056  0.8230549428747966  0.9163524092373336  1.0000
  H   H19       1.0  0.9619865959803006  0.44310182267556986  0.15680341666985176  1.0000
  H   H20       1.0  0.9396823480058559  0.5699934736583967  0.6993490699311833  1.0000
  H   H21       1.0  0.7454253145513177  0.8993440096806988  0.017735572254720777  1.0000
  H   H22       1.0  0.7454256513397769  0.8993454838177866  0.19397028934090477  1.0000
  H   H23       1.0  0.7244264328145411  0.06206117459374472  0.09246134148899565  1.0000
  Zn  Zn1       1.0  0.8461718650895695  0.6196900720689753  0.6343642497594377  1.0000
  Zn  Zn2       1.0  0.014342143585147626  0.6278411225760954  0.6480760016924425  1.0000
  C   C28       1.0  0.9302269901746091  0.6180179416962477  0.8783477144424066  1.0000
  C   C29       1.0  0.9302888650375626  0.6295151625070756  0.40409281197681257  1.0000
  C   C30       1.0  0.931722082873523  0.8872925595702159  0.6357297495337211  1.0000
  C   C31       1.0  0.9287937053144683  0.36023880831491484  0.6467108435094469  1.0000
  O   O1        1.0  0.9941180256543848  0.6345315760602896  0.4576645300639548  1.0000
  O   O2        1.0  0.9940351736879457  0.6191868983782578  0.8351825263859598  1.0000
  O   O3        1.0  0.9952416196295861  0.8366295160548769  0.6392667312072784  1.0000
  O   O4        1.0  0.9929115223850202  0.4170889659239503  0.6535802232074115  1.0000
  O   O5        1.0  0.8676024289014435  0.8304422259411375  0.62886002355849  1.0000
  O   O6        1.0  0.8663959925957299  0.6130013418027278  0.8247757474272439  1.0000
  O   O7        1.0  0.8664788443337157  0.6283459692067166  0.44725619026239216  1.0000
  O   O8        1.0  0.8652723410038214  0.4109033487501148  0.6431719807550951  1.0000
