data_image0
_chemical_formula_structural       NC8NC6H8C8H10C6NCOH7Zn2C4O8
_chemical_formula_sum              "N3 C33 H25 O9 Zn2"
_cell_length_a       17.457602349358154
_cell_length_b       9.275653711864159
_cell_length_c       10.29962270195845
_cell_angle_alpha    85.7624493108624
_cell_angle_beta     92.8939802036364
_cell_angle_gamma    91.13236207428555

_space_group_name_H-M_alt    "P 1"
_space_group_IT_number       1

loop_
  _space_group_symop_operation_xyz
  'x, y, z'

loop_
  _atom_site_type_symbol
  _atom_site_label
  _atom_site_symmetry_multiplicity
  _atom_site_fract_x
  _atom_site_fract_y
  _atom_site_fract_z
  _atom_site_occupancy
  N   N1        1.0  0.713964526023141  0.611988051299007  0.630492604994485  1.0000
  C   C1        1.0  0.6531437931173409  0.5610115141967884  0.6197516247919439  1.0000
  C   C2        1.0  0.5774801879048257  0.49760304803305133  0.6063994028483615  1.0000
  C   C3        1.0  0.5187390733847944  0.5422069391109803  0.681405685563417  1.0000
  C   C4        1.0  0.4445017114354055  0.48114977050750696  0.6686736772301642  1.0000
  C   C5        1.0  0.3821578778962786  0.5282449997598346  0.7481078260359477  1.0000
  C   C6        1.0  0.3074964044482217  0.5487222104819451  0.692395540417647  1.0000
  C   C7        1.0  0.24875634566466348  0.5931220025793429  0.7675092730387485  1.0000
  C   C8        1.0  0.17265287738652205  0.6142708200829943  0.7095832123449328  1.0000
  N   N2        1.0  0.11147864143527672  0.6312673885653535  0.6630107931718618  1.0000
  C   C9        1.0  0.264184321669572  0.6173146383702166  0.8988444655874361  1.0000
  C   C10       1.0  0.338058969047449  0.5972693107614369  0.9549454060072733  1.0000
  C   C11       1.0  0.39678649340485145  0.5530695333602076  0.8802898798587402  1.0000
  C   C12       1.0  0.4302976617402635  0.37473630287769155  0.5795006370498452  1.0000
  C   C13       1.0  0.48902556100118344  0.3304418698002993  0.5048951129496684  1.0000
  C   C14       1.0  0.562477627260972  0.39162397088312817  0.5181773701231667  1.0000
  H   H1        1.0  0.5306713294764118  0.6256903942544558  0.74824078093058  1.0000
  H   H2        1.0  0.2952165603705537  0.5320683581716783  0.5903316320630345  1.0000
  H   H3        1.0  0.2191601927517125  0.6516136121378349  0.9577637959034953  1.0000
  H   H4        1.0  0.3498162395627645  0.6156518755849942  0.05664031260933666  1.0000
  H   H5        1.0  0.45336546431233893  0.5364473769186757  0.9263547389340843  1.0000
  H   H6        1.0  0.3740668717933933  0.3244142268989434  0.5687251506652402  1.0000
  H   H7        1.0  0.4776005860039975  0.2481971293939924  0.43686476209329994  1.0000
  H   H8        1.0  0.6075068057423616  0.3563599082351361  0.45976678263002446  1.0000
  C   C15       1.0  0.9148777900271134  0.1983426958899246  0.6457162099451987  1.0000
  C   C16       1.0  0.8968544396378251  0.28083184467433897  0.5284212945203526  1.0000
  C   C17       1.0  0.8719161453179333  0.21435451263599514  0.4155866393076617  1.0000
  C   C18       1.0  0.8661419980308592  0.06348227873659518  0.4192637832014625  1.0000
  C   C19       1.0  0.8849926153903346  0.9798448644855534  0.5341236634535156  1.0000
  C   C20       1.0  0.9105727585126058  0.04490194418746518  0.647798964723368  1.0000
  C   C21       1.0  0.8539272986261497  0.3042245983314127  0.29037863387001783  1.0000
  C   C22       1.0  0.9256617317195154  0.3295118460108297  0.21267687393889823  1.0000
  H   H9        1.0  0.9845391948588841  0.46633146521287894  0.8314134682735976  1.0000
  H   H10       1.0  0.9005263972233771  0.39782733065502196  0.525222975391203  1.0000
  H   H11       1.0  0.8477584772184018  0.010318456455044256  0.3325777364979583  1.0000
  H   H12       1.0  0.8814454393568439  0.863201417393275  0.533040782305692  1.0000
  H   H13       1.0  0.9178310390692819  0.7462256721142995  0.8625446923667428  1.0000
  H   H14       1.0  0.8092005626424508  0.24915416718598205  0.23024932103801965  1.0000
  H   H15       1.0  0.8306534616719976  0.4102677028590316  0.3114926631834798  1.0000
  H   H16       1.0  0.9703712052441733  0.3878964574015733  0.2699492964934418  1.0000
  H   H17       1.0  0.948679766670879  0.2247118669801591  0.18783763319055846  1.0000
  H   H18       1.0  0.9111784915231723  0.39583505513320416  0.12085328876355894  1.0000
  C   C23       1.0  0.9126530037260502  0.6214782810191144  0.2653944991814252  1.0000
  C   C24       1.0  0.8322250952892719  0.6287000520616497  0.25675363139698226  1.0000
  C   C25       1.0  0.7918346157354037  0.6347054336584854  0.135455174112719  1.0000
  C   C26       1.0  0.832393124606703  0.6290172254307276  0.021596072937428934  1.0000
  C   C27       1.0  0.9127975513306056  0.6217663898379393  0.028120657913303315  1.0000
  C   C28       1.0  0.9524888030651579  0.6186175180274236  0.1504895432601343  1.0000
  N   N3        1.0  0.7094445846924907  0.6398526180067379  0.13062427898261242  1.0000
  C   C29       1.0  0.6640456432767743  0.7163444566366972  0.02906323794367527  1.0000
  O   O1        1.0  0.6945203119299929  0.8011637397948026  0.9446858876775526  1.0000
  H   H19       1.0  0.06431352549180902  0.606309994191925  0.48904420680724625  1.0000
  H   H20       1.0  0.8005353162534744  0.630914831812093  0.3443277353748786  1.0000
  H   H21       1.0  0.8012632139015489  0.6272352758520969  0.9281965169562176  1.0000
  H   H22       1.0  0.014490735885859252  0.6130690250165953  0.15627341645659287  1.0000
  H   H23       1.0  0.9435947091475875  0.6167933818357572  0.7033186573644006  1.0000
  H   H24       1.0  0.680547435880954  0.5936226407380367  0.21022878804730727  1.0000
  H   H25       1.0  0.6022331356439252  0.7043543726773045  0.026875712731219137  1.0000
  Zn  Zn1       1.0  0.8286785340641445  0.6175477889235041  0.6398841405149531  1.0000
  Zn  Zn2       1.0  0.9967646812582704  0.6256958368350889  0.65362986094077  1.0000
  C   C30       1.0  0.9127977188014184  0.6159695339577782  0.8839348494792847  1.0000
  C   C31       1.0  0.9126473227918808  0.627275999545696  0.40957943401836494  1.0000
  C   C32       1.0  0.9113815783763818  0.8848821083514391  0.6422298853177331  1.0000
  C   C33       1.0  0.9140634146807176  0.35836169060235434  0.6512844584663189  1.0000
  O   O2        1.0  0.9764332650691708  0.6323076201013689  0.4631856290890193  1.0000
  O   O3        1.0  0.9765852784547153  0.6171210056889611  0.8407609616418403  1.0000
  O   O4        1.0  0.9754408675175904  0.8342712692020491  0.6455824263451015  1.0000
  O   O5        1.0  0.9775776185789896  0.4151573640824324  0.6583640623474603  1.0000
  O   O6        1.0  0.847865539383863  0.828086258897198  0.6351499344106961  1.0000
  O   O7        1.0  0.8490099414976257  0.6109377271548282  0.830328404723466  1.0000
  O   O8        1.0  0.848857928122626  0.6261242907498619  0.4527515106743516  1.0000
  O   O9        1.0  0.850002281700189  0.4089740244578117  0.647930041273524  1.0000
