data_image0
_chemical_formula_structural       NC8NC6H8C9H8C7F3H5Zn2C4O8
_chemical_formula_sum              "N2 C34 H21 F3 Zn2 O8"
_cell_length_a       17.457602349358154
_cell_length_b       9.275152443626249
_cell_length_c       9.272291681409872
_cell_angle_alpha    85.85885421009831
_cell_angle_beta     93.27365386630078
_cell_angle_gamma    92.27213218982278

_space_group_name_H-M_alt    "P 1"
_space_group_IT_number       1

loop_
  _space_group_symop_operation_xyz
  'x, y, z'

loop_
  _atom_site_type_symbol
  _atom_site_label
  _atom_site_symmetry_multiplicity
  _atom_site_fract_x
  _atom_site_fract_y
  _atom_site_fract_z
  _atom_site_occupancy
  N   N1        1.0  0.7251398968763225  0.6005780593893144  0.4699801053016526  1.0000
  C   C1        1.0  0.6637444097052878  0.549446550751302  0.4583436028575498  1.0000
  C   C2        1.0  0.5873659154020552  0.4858453977355741  0.44387837091992766  1.0000
  C   C3        1.0  0.529396391822756  0.5312109850797042  0.526916710263726  1.0000
  C   C4        1.0  0.45447116241408186  0.469969468523731  0.5131267844235929  1.0000
  C   C5        1.0  0.3929429931906732  0.5178712135333134  0.6010679581882346  1.0000
  C   C6        1.0  0.3182665669374812  0.5378378388812504  0.5390835295485938  1.0000
  C   C7        1.0  0.260296414066112  0.5830001425601519  0.6222423557775987  1.0000
  C   C8        1.0  0.1841759195643941  0.6036179399095474  0.5577957345880011  1.0000
  N   N2        1.0  0.1229879213516413  0.620187562174787  0.5059808399822288  1.0000
  C   C9        1.0  0.2765141458309525  0.6084710123276107  0.7679494969201182  1.0000
  C   C10       1.0  0.3504098344436193  0.5889404235664013  0.8303630528276871  1.0000
  C   C11       1.0  0.4083714119490671  0.543982713126149  0.7477119140661543  1.0000
  C   C12       1.0  0.43879394447818815  0.3625954904010098  0.4147095541386421  1.0000
  C   C13       1.0  0.4967551161104917  0.31754350402502185  0.33211448237172236  1.0000
  C   C14       1.0  0.5708986040809899  0.3789153326812662  0.34651473588054404  1.0000
  H   H1        1.0  0.5424715879577888  0.6154181776608683  0.6006590305371946  1.0000
  H   H2        1.0  0.3053953366621965  0.5201928483039531  0.4258385534650635  1.0000
  H   H3        1.0  0.23208843175116653  0.6433675576083977  0.8331824287615002  1.0000
  H   H4        1.0  0.3627749792734294  0.6083123846404515  0.9431883854798835  1.0000
  H   H5        1.0  0.46496596485271874  0.5277830446365595  0.7989610339991711  1.0000
  H   H6        1.0  0.3819950731821211  0.31211878723263653  0.4030309951758009  1.0000
  H   H7        1.0  0.4841952035509567  0.2345648948645882  0.2570377777436874  1.0000
  H   H8        1.0  0.6153214027227705  0.34305756008655086  0.28185226583155387  1.0000
  C   C15       1.0  0.9218086430314278  0.18665221648696728  0.4892482265901714  1.0000
  C   C16       1.0  0.8936419876059041  0.26693203317283354  0.36422285786078556  1.0000
  C   C17       1.0  0.8726024052209835  0.19936233225088018  0.2375493408181948  1.0000
  C   C18       1.0  0.8793971420292359  0.050313632631167726  0.23340071713468835  1.0000
  C   C19       1.0  0.9060586111851723  0.9682624264989756  0.3572547975822362  1.0000
  C   C20       1.0  0.9263265061135022  0.03410277683431051  0.4867258513671573  1.0000
  C   C21       1.0  0.858099264732137  0.9809842263892603  0.10226665696388482  1.0000
  C   C22       1.0  0.8402672309312306  0.9229036287304383  0.9924625866398342  1.0000
  C   C23       1.0  0.818631573364302  0.8524211133295485  0.8592346398798401  1.0000
  H   H9        1.0  0.03323007192584204  0.2763138620956933  0.7872481235492772  1.0000
  H   H10       1.0  0.8895963328571544  0.38324614696330617  0.36340329229793755  1.0000
  H   H11       1.0  0.8517166304667666  0.2637559735576762  0.1422898140097466  1.0000
  H   H12       1.0  0.9092752650600898  0.8520757645198949  0.35352415347343746  1.0000
  H   H13       1.0  0.998894173404683  0.7441026303551574  0.6902183202277552  1.0000
  H   H14       1.0  0.8327176217792115  0.7365113738804054  0.8739775307517084  1.0000
  H   H15       1.0  0.7560729251467828  0.8617476046598208  0.8338374921396063  1.0000
  H   H16       1.0  0.850690753671268  0.9055335801398812  0.7688186734584503  1.0000
  C   C24       1.0  0.9224319844467679  0.6065939243184351  0.06449115621203627  1.0000
  C   C25       1.0  0.9735774130252213  0.518326578090645  0.14965271335504937  1.0000
  C   C26       1.0  0.028963256228107692  0.4431945651728295  0.08613686371766183  1.0000
  C   C27       1.0  0.03543526867047575  0.4560902157773965  0.9357866561801798  1.0000
  C   C28       1.0  0.9827347308275858  0.5395018065073114  0.8493307160973389  1.0000
  C   C29       1.0  0.9257031467663734  0.614161072724015  0.9114829176919752  1.0000
  C   C30       1.0  0.09390602531982872  0.37160665910830937  0.8667945244473931  1.0000
  F   F1        1.0  0.15805463798593888  0.3504109958596979  0.9596026597818361  1.0000
  F   F2        1.0  0.11726817028062864  0.4449494965622789  0.7405863455521193  1.0000
  F   F3        1.0  0.06157654677444602  0.2385584480454208  0.8343648102086156  1.0000
  H   H17       1.0  0.8158816527583374  0.8928460907770666  0.13393167956291463  1.0000
  H   H18       1.0  0.9717596798472671  0.5096244840489459  0.2665647132781983  1.0000
  H   H19       1.0  0.0672658809681661  0.3758268352443319  0.1550557622591644  1.0000
  H   H20       1.0  0.9849439607019272  0.5434585657888367  0.7325295207246363  1.0000
  H   H21       1.0  0.7524679209745285  0.7438152790921115  0.7819866664417745  1.0000
  Zn  Zn1       1.0  0.8399502543116725  0.6062331431408989  0.480377477957624  1.0000
  Zn  Zn2       1.0  0.00817753219626538  0.6145207533443848  0.4955953095622181  1.0000
  C   C31       1.0  0.9250524777750514  0.6069822408513772  0.7514003246587455  1.0000
  C   C32       1.0  0.9230771560222155  0.6137735680339631  0.2245727651671532  1.0000
  C   C33       1.0  0.9254463826262788  0.8738650160592645  0.48145547092754826  1.0000
  C   C34       1.0  0.9226831848215996  0.3468890570663312  0.49451769575239224  1.0000
  O   O1        1.0  0.9871350231702054  0.6193219318491516  0.28407272201819156  1.0000
  O   O2        1.0  0.9886752146207217  0.6077228891608415  0.7034499379768566  1.0000
  O   O3        1.0  0.9889924429488338  0.8232340763341532  0.4854674763665914  1.0000
  O   O4        1.0  0.9868177370749341  0.40381075120395393  0.5020550702739957  1.0000
  O   O5        1.0  0.8613099920252689  0.8169431424546785  0.47391771204515654  1.0000
  O   O6        1.0  0.8609927726388107  0.6014336882144595  0.6919000916006903  1.0000
  O   O7        1.0  0.8594525742748668  0.6130326651317224  0.2725211419193059  1.0000
  O   O8        1.0  0.8591352885390198  0.39752147513175884  0.4905035983288817  1.0000
