data_image0
_chemical_formula_structural       NC8NC6H8C6SCH8C6NCH9Zn2C4O8
_chemical_formula_sum              "N3 C32 H25 S1 Zn2 O8"
_cell_length_a       17.457602349358154
_cell_length_b       10.302809429070853
_cell_length_c       9.273390368590327
_cell_angle_alpha    86.16778919332907
_cell_angle_beta     92.8511133753594
_cell_angle_gamma    91.68806441137123

_space_group_name_H-M_alt    "P 1"
_space_group_IT_number       1

loop_
  _space_group_symop_operation_xyz
  'x, y, z'

loop_
  _atom_site_type_symbol
  _atom_site_label
  _atom_site_symmetry_multiplicity
  _atom_site_fract_x
  _atom_site_fract_y
  _atom_site_fract_z
  _atom_site_occupancy
  N   N1        1.0  0.7225529332791261  0.43781139320207285  0.4756969241280704  1.0000
  C   C1        1.0  0.6614759926055869  0.39178773184228954  0.4639156041336583  1.0000
  C   C2        1.0  0.5854936944847576  0.33454011096294356  0.4492702317212973  1.0000
  C   C3        1.0  0.5269580815043894  0.3754842005728696  0.5323916253348826  1.0000
  C   C4        1.0  0.4524138087301746  0.3203607071526109  0.518428155703933  1.0000
  C   C5        1.0  0.3902868870922635  0.3635941666148712  0.6064568640595458  1.0000
  C   C6        1.0  0.3157454204910084  0.38146523265584387  0.5445705538829044  1.0000
  C   C7        1.0  0.2572097946153825  0.42222659895228065  0.6278117544424653  1.0000
  C   C8        1.0  0.1812303791801216  0.4406798256480713  0.563466727006406  1.0000
  N   N2        1.0  0.1201558456637706  0.4555098437873959  0.5117334925811412  1.0000
  C   C9        1.0  0.2727234252199672  0.4453653607862036  0.7735036176724053  1.0000
  C   C10       1.0  0.34648015165627827  0.427887273569318  0.8358200839621777  1.0000
  C   C11       1.0  0.4050041299334224  0.38731076224351524  0.7530868622128062  1.0000
  C   C12       1.0  0.4376939283861378  0.22360071113400903  0.41975303913493067  1.0000
  C   C13       1.0  0.496217785915545  0.1829394593401268  0.33707556892956037  1.0000
  C   C14       1.0  0.5699772417586826  0.23818112843098715  0.35164937249529427  1.0000
  H   H1        1.0  0.5392959059013076  0.4513622399930668  0.6063383406273717  1.0000
  H   H2        1.0  0.3034099309254572  0.36541713750564186  0.4313438506132259  1.0000
  H   H3        1.0  0.2278569669103245  0.476862819919474  0.8387995891834084  1.0000
  H   H4        1.0  0.3583019649000232  0.44548858793996415  0.9486325427893902  1.0000
  H   H5        1.0  0.4614854471497968  0.3728127544414608  0.8042557758785034  1.0000
  H   H6        1.0  0.38121026906928723  0.17816615262544278  0.4079316365863801  1.0000
  H   H7        1.0  0.48439388295449537  0.1081648229455543  0.2617989573856001  1.0000
  H   H8        1.0  0.6148436963822914  0.20581966277979902  0.2869206472204482  1.0000
  C   C15       1.0  0.9213580724676932  0.06540740865872108  0.4937218040843654  1.0000
  C   C16       1.0  0.965627049190988  0.07382889338426857  0.37091390622776577  1.0000
  C   C17       1.0  0.9874433121524564  0.961029188492845  0.3096262516984929  1.0000
  C   C18       1.0  0.9656269524600686  0.8386777304169751  0.3709138200024824  1.0000
  C   C19       1.0  0.921358041888866  0.8279042685942771  0.493721793746553  1.0000
  C   C20       1.0  0.899420029786187  0.9419048202732402  0.5544964840099547  1.0000
  S   S1        1.0  0.044144994328165765  0.97328740217907  0.15290224067553826  1.0000
  C   C21       1.0  0.9610158591841637  0.9767472715761587  0.02642304487220004  1.0000
  H   H9        1.0  0.9046500077960714  0.3895476571307266  0.5399688820955517  1.0000
  H   H10       1.0  0.9832102110289258  0.16774068777352635  0.32213260474285965  1.0000
  H   H11       1.0  0.9832100417359635  0.7523902856754633  0.3221324770849787  1.0000
  H   H12       1.0  0.86526088166406  0.9345022271686931  0.649207739870217  1.0000
  H   H13       1.0  0.9046487547433475  0.4965318182150237  0.5399671836322908  1.0000
  H   H14       1.0  0.9258070648437724  0.8859087046701064  0.04245092376892057  1.0000
  H   H15       1.0  0.9258077833767471  0.0621436933080628  0.042450464965844814  1.0000
  H   H16       1.0  0.9808353465796389  0.9844812056134641  0.9142978212599817  1.0000
  C   C22       1.0  0.9213936144767041  0.44260882186683226  0.0704792238813281  1.0000
  C   C23       1.0  0.9918578167800534  0.44316575712994766  0.1504682050322177  1.0000
  C   C24       1.0  0.0610929641013247  0.45573692262208554  0.08132851611004921  1.0000
  C   C25       1.0  0.061623010720644356  0.4681811761805146  0.929748566954435  1.0000
  C   C26       1.0  0.9916264357051535  0.46545556070217176  0.8489923672227238  1.0000
  C   C27       1.0  0.9213225132975255  0.450702866253331  0.9169643134527043  1.0000
  N   N3        1.0  0.13215486040305402  0.4823049189143742  0.8553529209072472  1.0000
  C   C28       1.0  0.20790437009741303  0.4858297594204062  0.9292066455196246  1.0000
  H   H17       1.0  0.8002991774372183  0.37485460378912805  0.3453438783998777  1.0000
  H   H18       1.0  0.9934507142197309  0.4369697479293302  0.2676606990080892  1.0000
  H   H19       1.0  0.11395317890603018  0.4568952266343216  0.14724048528587863  1.0000
  H   H20       1.0  0.992197517430459  0.47187824078029306  0.7319164936894516  1.0000
  H   H21       1.0  0.7425269604636683  0.3418806252622695  0.8052681738974106  1.0000
  H   H22       1.0  0.12966555462108498  0.490798447606726  0.7422514694944646  1.0000
  H   H23       1.0  0.21288350780057774  0.5693352009297741  0.9991264548902143  1.0000
  H   H24       1.0  0.21726269408026577  0.39344236647148256  0.9956087806352594  1.0000
  H   H25       1.0  0.2528651975137046  0.4976459849711836  0.8483910846680995  1.0000
  Zn  Zn1       1.0  0.8372925444309749  0.44291538165794186  0.48610462113832775  1.0000
  Zn  Zn2       1.0  0.0054162192710913715  0.45039532356667045  0.501337595531977  1.0000
  C   C29       1.0  0.9213342256617145  0.4440007101605459  0.7569603572776724  1.0000
  C   C30       1.0  0.9213763739336918  0.44931171622075583  0.23048216719814607  1.0000
  C   C31       1.0  0.9213545772739699  0.683721025963512  0.4879779985940118  1.0000
  C   C32       1.0  0.9213559649461937  0.20958983877013093  0.4994645975248957  1.0000
  O   O1        1.0  0.9851726462681546  0.45439420374446615  0.28996145101575244  1.0000
  O   O2        1.0  0.9851399324487722  0.4445943420785261  0.7090421336642223  1.0000
  O   O3        1.0  0.9851555064248715  0.6381715048308871  0.4918368980026988  1.0000
  O   O4        1.0  0.9851570149319124  0.260817046693796  0.5071665734130584  1.0000
  O   O5        1.0  0.8575516913977955  0.6324936559796204  0.48027563805139883  1.0000
  O   O6        1.0  0.8575361174245801  0.4389180523237217  0.6974807968639858  1.0000
  O   O7        1.0  0.8575688314405793  0.44871785218040494  0.27839838138041695  1.0000
  O   O8        1.0  0.8575532000921213  0.25514068687684777  0.4956036118360929  1.0000
