data_image0
_chemical_formula_structural       NC8NC6H8C6NCOH7C7OH6Zn2C4O8
_chemical_formula_sum              "N3 C32 H21 O10 Zn2"
_cell_length_a       17.457602349358154
_cell_length_b       10.299619329790078
_cell_length_c       9.274081674992354
_cell_angle_alpha    86.07708878693475
_cell_angle_beta     92.53340075860572
_cell_angle_gamma    91.71362633690529

_space_group_name_H-M_alt    "P 1"
_space_group_IT_number       1

loop_
  _space_group_symop_operation_xyz
  'x, y, z'

loop_
  _atom_site_type_symbol
  _atom_site_label
  _atom_site_symmetry_multiplicity
  _atom_site_fract_x
  _atom_site_fract_y
  _atom_site_fract_z
  _atom_site_occupancy
  N   N1        1.0  0.727470617995994  0.44078943454911235  0.47622179715269364  1.0000
  C   C1        1.0  0.6664164575746654  0.3947708170665316  0.464436591785814  1.0000
  C   C2        1.0  0.5904624681352194  0.3375294550523533  0.44978638452030273  1.0000
  C   C3        1.0  0.5316904999633592  0.3783486933315774  0.5328957462156052  1.0000
  C   C4        1.0  0.4571730734985529  0.3232309970570746  0.5189275915941989  1.0000
  C   C5        1.0  0.3947958086639353  0.366332193996485  0.6069435399157923  1.0000
  C   C6        1.0  0.3204432034179273  0.38431142653505823  0.5450729093354301  1.0000
  C   C7        1.0  0.2616708172505124  0.4249476855031453  0.6283020270323427  1.0000
  C   C8        1.0  0.185887732477847  0.4435133358888774  0.5639732843650092  1.0000
  N   N2        1.0  0.12497104661613481  0.4584337403914176  0.5122531419717595  1.0000
  C   C9        1.0  0.2767572136049847  0.44785231654465885  0.7739660420081831  1.0000
  C   C10       1.0  0.3503239038056981  0.4302654736860241  0.8362667916082667  1.0000
  C   C11       1.0  0.4090831805179728  0.38981328612390875  0.7535455701049651  1.0000
  C   C12       1.0  0.4427209407632537  0.22660406673242006  0.4202600647817121  1.0000
  C   C13       1.0  0.5014799082934543  0.18606701966591443  0.3375945711558699  1.0000
  C   C14       1.0  0.5752107337145511  0.24130191747000063  0.35217294600261306  1.0000
  H   H1        1.0  0.5438285727024058  0.45412807288202806  0.6068372417292882  1.0000
  H   H2        1.0  0.3084402612245757  0.3684458983318155  0.43186811767839073  1.0000
  H   H3        1.0  0.2317049090383284  0.4792514892235411  0.8392524692548449  1.0000
  H   H4        1.0  0.3618148159401121  0.4476853961020104  0.9490576430497668  1.0000
  H   H5        1.0  0.46540841730039567  0.37522593147098715  0.8047015582140495  1.0000
  H   H6        1.0  0.3862603379478304  0.18117480383082785  0.4084348672938629  1.0000
  H   H7        1.0  0.48986000722808715  0.11139359385833947  0.26232361632850876  1.0000
  H   H8        1.0  0.6202611168799615  0.2090375265638651  0.2874535239441791  1.0000
  C   C15       1.0  0.9261228810297776  0.06823843626215731  0.4941910687696165  1.0000
  C   C16       1.0  0.889540206145731  0.073621031627503  0.3559743178427579  1.0000
  C   C17       1.0  0.8722543206614254  0.9596477475433571  0.2854370300886555  1.0000
  C   C18       1.0  0.8897682878872287  0.8384735909410187  0.35610595140451284  1.0000
  C   C19       1.0  0.9263260444421376  0.8309751715337077  0.49429702343373405  1.0000
  C   C20       1.0  0.9445691310002996  0.9464727067799307  0.5623106581124078  1.0000
  N   N3        1.0  0.8337517167453098  0.9689149524981141  0.14491340402419262  1.0000
  C   C21       1.0  0.8461582898825462  0.8838750695281393  0.03262665331496417  1.0000
  O   O1        1.0  0.899987350828313  0.8045887717113932  0.04356542198210911  1.0000
  H   H9        1.0  0.9943980545783687  0.2652602395039201  0.7555559166489991  1.0000
  H   H10       1.0  0.8748381039392895  0.16664569227048243  0.3018133551900859  1.0000
  H   H11       1.0  0.8735194141992366  0.749957904313155  0.30477457161609256  1.0000
  H   H12       1.0  0.9727793494735023  0.9414481285756143  0.6688531375571349  1.0000
  H   H13       1.0  0.9393263734118013  0.5005407723943635  0.5482670780652092  1.0000
  H   H14       1.0  0.7983202474737966  0.0477559833462482  0.11835766655033786  1.0000
  H   H15       1.0  0.8100359362724834  0.890380846423874  0.9347010562423228  1.0000
  C   C22       1.0  0.9275180117336816  0.44625981281532034  0.0710911647753032  1.0000
  C   C23       1.0  0.9898256089272468  0.5055456060709533  0.145271584786564  1.0000
  C   C24       1.0  0.04779220770403869  0.5742194775587177  0.07005058600447178  1.0000
  C   C25       1.0  0.04343574512776671  0.5839590629276918  0.918534133281347  1.0000
  C   C26       1.0  0.9827352127530546  0.524004117331168  0.8432964730837216  1.0000
  C   C27       1.0  0.924930946290633  0.45295375295515483  0.9173968561713624  1.0000
  C   C28       1.0  0.11188892552218488  0.6361699446656535  0.15131232723064647  1.0000
  O   O2        1.0  0.16469039151168707  0.6990197117250287  0.08676572038272812  1.0000
  H   H16       1.0  0.7457648724926278  0.3538297079812498  0.1659753017712291  1.0000
  H   H17       1.0  0.9923586796463453  0.5008373530479109  0.2625399783367641  1.0000
  H   H18       1.0  0.08736570265301036  0.6369148457023728  0.8579141436604081  1.0000
  H   H19       1.0  0.9820255682653749  0.5306825966517164  0.7261591581204931  1.0000
  H   H20       1.0  0.803772366478218  0.3854411137121805  0.6313229814648071  1.0000
  H   H21       1.0  0.11412278346535376  0.6280129071271487  0.26842105675777184  1.0000
  Zn  Zn1       1.0  0.8421806288849353  0.44587778314245585  0.4866279844877357  1.0000
  Zn  Zn2       1.0  0.010260982577053435  0.4533348371678685  0.501858750617868  1.0000
  C   C29       1.0  0.9254168629048449  0.44651464861034107  0.7574261192979985  1.0000
  C   C30       1.0  0.9270265839935663  0.45269969288806533  0.23106092378673293  1.0000
  C   C31       1.0  0.9263012702847283  0.686756073277899  0.4885344350651326  1.0000
  C   C32       1.0  0.9261421186090952  0.21245670596289146  0.4999526794303395  1.0000
  O   O3        1.0  0.9906472731134098  0.4576852228021817  0.2905282318364997  1.0000
  O   O4        1.0  0.9893652741296904  0.44718786714219605  0.7095181953832448  1.0000
  O   O5        1.0  0.9900785798329105  0.6411858295313886  0.4923861801812184  1.0000
  O   O6        1.0  0.9899339103885029  0.2636872663041514  0.5076601337992512  1.0000
  O   O7        1.0  0.8625076437159336  0.6355253514628008  0.48082659610125966  1.0000
  O   O8        1.0  0.8617943386597494  0.4415289487878513  0.6979585346874537  1.0000
  O   O9        1.0  0.8630763429784167  0.4520262454904225  0.27896683866649474  1.0000
  O   O10       1.0  0.8623629799176444  0.2580282805578571  0.4960988486634297  1.0000
