data_image0
_chemical_formula_structural       NC9NC5H8C6H6C6NCOH7Zn2C4O8
_chemical_formula_sum              "N3 C31 H21 O9 Zn2"
_cell_length_a       17.807436237873137
_cell_length_b       10.681118228259551
_cell_length_c       10.29962270195845
_cell_angle_alpha    85.57967045949373
_cell_angle_beta     89.41121966804023
_cell_angle_gamma    88.3900060031841

_space_group_name_H-M_alt    "P 1"
_space_group_IT_number       1

loop_
  _space_group_symop_operation_xyz
  'x, y, z'

loop_
  _atom_site_type_symbol
  _atom_site_label
  _atom_site_symmetry_multiplicity
  _atom_site_fract_x
  _atom_site_fract_y
  _atom_site_fract_z
  _atom_site_occupancy
  N   N1        1.0  0.7071413652431174  0.3377549939551918  0.5571782420971889  1.0000
  C   C1        1.0  0.6465517835648318  0.30381860281630213  0.5461546711779501  1.0000
  C   C2        1.0  0.5711850033124407  0.2616054695052066  0.5324425458810436  1.0000
  C   C3        1.0  0.5530739870239528  0.192708730383921  0.4274431479768066  1.0000
  C   C4        1.0  0.4798967169110894  0.15161549110629347  0.41404693234791057  1.0000
  C   C5        1.0  0.4237817386049375  0.17905493379169912  0.5056176638451246  1.0000
  C   C6        1.0  0.3460131795675954  0.1354942416107192  0.4914630275713656  1.0000
  C   C7        1.0  0.2838416551665238  0.2143386392619484  0.5174011236303784  1.0000
  C   C8        1.0  0.2105220827939403  0.17304961700448507  0.5040185885564776  1.0000
  C   C9        1.0  0.1473005360629845  0.25448936376780695  0.5303205769099648  1.0000
  N   N2        1.0  0.09648340064974  0.3199612861725718  0.5514666490796096  1.0000
  C   C10       1.0  0.1987904852905211  0.05266742242720768  0.4646726083717556  1.0000
  C   C11       1.0  0.2601046383050228  0.97380966461271  0.43872612288558854  1.0000
  C   C12       1.0  0.3333047409314863  0.014718173900507336  0.4519061260751436  1.0000
  C   C13       1.0  0.4425842002237926  0.24842845134135483  0.6108362843867361  1.0000
  C   C14       1.0  0.5158143126383237  0.289338048091895  0.6240768543083559  1.0000
  H   H1        1.0  0.595455515357254  0.17100460113228455  0.35573275683143657  1.0000
  H   H2        1.0  0.4669686856069262  0.09982500672823558  0.33112919608053426  1.0000
  H   H3        1.0  0.2923444927410451  0.30833164344474007  0.5462772437637522  1.0000
  H   H4        1.0  0.1423234889408846  0.01984364548797246  0.4540780632505632  1.0000
  H   H5        1.0  0.2509032316076862  0.8806071055493465  0.40864963158796175  1.0000
  H   H6        1.0  0.3799420309972492  0.9513152341157228  0.43285833128983  1.0000
  H   H7        1.0  0.4009197941806267  0.26961317741745705  0.6838411307937735  1.0000
  H   H8        1.0  0.5292704985943933  0.3423052099512598  0.7059529988240614  1.0000
  C   C15       1.0  0.9018159824058166  0.9611079877033094  0.5543280016261802  1.0000
  C   C16       1.0  0.9348153414875952  0.8851196014203749  0.6569779748512432  1.0000
  C   C17       1.0  0.934815329990555  0.7542373637510105  0.6569779156463682  1.0000
  C   C18       1.0  0.9018159698029198  0.696598392254079  0.5543280579498444  1.0000
  C   C19       1.0  0.8688439276723953  0.7725741575994725  0.45176291131089275  1.0000
  C   C20       1.0  0.8688439391305691  0.903466415191529  0.45176296385001957  1.0000
  H   H9        1.0  0.8684444955384193  0.26909585842507977  0.4505216256369422  1.0000
  H   H10       1.0  0.9606818405202329  0.9267389508315708  0.7374398275573504  1.0000
  H   H11       1.0  0.9606817481492652  0.6982349264500135  0.7374398059727747  1.0000
  H   H12       1.0  0.8429740560047999  0.7310005019978925  0.371290552702914  1.0000
  H   H13       1.0  0.8429740363103403  0.9594249419284807  0.3712905424321833  1.0000
  H   H14       1.0  0.8684447720700467  0.4071664947851041  0.4505212702842607  1.0000
  C   C21       1.0  0.9017444831196066  0.32873436078273444  0.17297229334456232  1.0000
  C   C22       1.0  0.8230253941593639  0.341992813637104  0.1720335451933861  1.0000
  C   C23       1.0  0.783504919422597  0.35071665549944275  0.05459603896075804  1.0000
  C   C24       1.0  0.8231915079262176  0.3422536356501349  0.9368589158372416  1.0000
  C   C25       1.0  0.9018874588534114  0.32897198439794084  0.9356837218044296  1.0000
  C   C26       1.0  0.9407374733955962  0.3227893622428455  0.05425037966735924  1.0000
  N   N3        1.0  0.7028541885338091  0.3623440890070895  0.05766180122872644  1.0000
  C   C27       1.0  0.6587804141354974  0.4327105186080924  0.9602348352413923  1.0000
  O   O1        1.0  0.689043585007166  0.5037164439365076  0.8726809373880244  1.0000
  H   H15       1.0  0.05017501438904404  0.30238698110750617  0.3821029138647325  1.0000
  H   H16       1.0  0.7920057745291104  0.34666916211524246  0.2626442572773673  1.0000
  H   H17       1.0  0.7927002098590983  0.34341075307488156  0.8464539889581251  1.0000
  H   H18       1.0  0.0014221695382024002  0.31258471520484754  0.05409662790363701  1.0000
  H   H19       1.0  0.9320192886641955  0.32197805553546455  0.6079389635004877  1.0000
  H   H20       1.0  0.6743278821817094  0.3247104378639638  0.14017758722446683  1.0000
  H   H21       1.0  0.598193869519686  0.4276689486101648  0.964018458257696  1.0000
  Zn  Zn1       1.0  0.8194970666256758  0.33261677505569764  0.5555375102620681  1.0000
  Zn  Zn2       1.0  0.9841276830716522  0.32508930026296246  0.5531180571569652  1.0000
  C   C28       1.0  0.9018587572741091  0.3239382247813396  0.7915149896782201  1.0000
  C   C29       1.0  0.9017677902082781  0.3337693484807269  0.3171406787826263  1.0000
  C   C30       1.0  0.9018111276986905  0.5575735891765432  0.5491531106582719  1.0000
  C   C31       1.0  0.9018153636197979  0.10013248209246606  0.5595026278642883  1.0000
  O   O2        1.0  0.9642520732418909  0.3325970354789147  0.36460673608539085  1.0000
  O   O3        1.0  0.9643253027597806  0.3193964137368883  0.7422122496178285  1.0000
  O   O4        1.0  0.9642859993158259  0.5080599641380164  0.5465033299363635  1.0000
  O   O5        1.0  0.9642913204903146  0.1439334965745298  0.5603155592211495  1.0000
  O   O6        1.0  0.8393333730266626  0.5137725813142489  0.5483400090166934  1.0000
  O   O7        1.0  0.8393726764541651  0.32511053547629776  0.7440488594552552  1.0000
  O   O8        1.0  0.8392994466935548  0.3383111130897447  0.36644178457534937  1.0000
  O   O9        1.0  0.8393386939571584  0.14964756525873546  0.5621507050756251  1.0000
