data_image0
_chemical_formula_structural       NC9NC5H8C6NH7C6NCH9Zn2C4O8
_chemical_formula_sum              "N4 C31 H24 Zn2 O8"
_cell_length_a       17.807436237873137
_cell_length_b       9.274771166103582
_cell_length_c       9.273390368590327
_cell_angle_alpha    86.06293122453995
_cell_angle_beta     89.39974432744097
_cell_angle_gamma    88.98784114054227

_space_group_name_H-M_alt    "P 1"
_space_group_IT_number       1

loop_
  _space_group_symop_operation_xyz
  'x, y, z'

loop_
  _atom_site_type_symbol
  _atom_site_label
  _atom_site_symmetry_multiplicity
  _atom_site_fract_x
  _atom_site_fract_y
  _atom_site_fract_z
  _atom_site_occupancy
  N   N1        1.0  0.7158416470902222  0.5239307328052214  0.39575021385317477  1.0000
  C   C1        1.0  0.6550416654270622  0.4847266741370895  0.38359135133436584  1.0000
  C   C2        1.0  0.5794131707676046  0.4359611423296792  0.3684670464396749  1.0000
  C   C3        1.0  0.5608928921402326  0.35542513795923125  0.2520891519936961  1.0000
  C   C4        1.0  0.4874608611394892  0.3079527846640713  0.23731296430852944  1.0000
  C   C5        1.0  0.4314981086146613  0.34059685041105925  0.33887946490281506  1.0000
  C   C6        1.0  0.3534594815646558  0.2902745345217026  0.3232670431683009  1.0000
  C   C7        1.0  0.2917767085255668  0.38136104168906715  0.3518786785513699  1.0000
  C   C8        1.0  0.2182011447138214  0.33366339950800783  0.33711810867726366  1.0000
  C   C9        1.0  0.1554845438085367  0.4277426300275986  0.3661278368603622  1.0000
  N   N2        1.0  0.1050733496703923  0.5033758354769944  0.38945086458122824  1.0000
  C   C10       1.0  0.2057232500412348  0.1945924945887405  0.29371832290292277  1.0000
  C   C11       1.0  0.2665485697396524  0.10349050715047792  0.26509740639868595  1.0000
  C   C12       1.0  0.3400023217752809  0.15074766967098352  0.2796340464783136  1.0000
  C   C13       1.0  0.4507127745884326  0.4216843756436215  0.45549959916226945  1.0000
  C   C14       1.0  0.5241965301188415  0.46894348313670453  0.4701034552680161  1.0000
  H   H1        1.0  0.6031538565116248  0.3296124818341364  0.17255140602601893  1.0000
  H   H2        1.0  0.4742260459957057  0.24736730914858085  0.14540384852474175  1.0000
  H   H3        1.0  0.30086264553238  0.4899248714425466  0.38371736279265334  1.0000
  H   H4        1.0  0.1490527370921695  0.15667452546087302  0.28203313280953957  1.0000
  H   H5        1.0  0.2567692796869639  0.9958231503951144  0.23192476544237728  1.0000
  H   H6        1.0  0.3862461891601038  0.07752091077794887  0.25863514352523453  1.0000
  H   H7        1.0  0.4091653955373543  0.4469137414323707  0.536475116746187  1.0000
  H   H8        1.0  0.53796710335474  0.5308719967943125  0.5608539738659066  1.0000
  C   C15       1.0  0.9081552461732183  0.0901866795114592  0.3934234079041903  1.0000
  C   C16       1.0  0.8908757127043111  0.17303813788131883  0.26481643207479055  1.0000
  C   C17       1.0  0.8806085155764953  0.10715245524585093  0.1352782392314451  1.0000
  C   C18       1.0  0.8876602493312248  0.957025776137336  0.13340692384004926  1.0000
  C   C19       1.0  0.903550997870573  0.8729094126326163  0.26026585026376203  1.0000
  C   C20       1.0  0.9127668743466505  0.9371086183800368  0.3917901172505227  1.0000
  N   N3        1.0  0.8637904604952948  0.19306398653114343  0.005247256152142388  1.0000
  H   H9        1.0  0.9926724116838811  0.16873607818340575  0.7074808149905263  1.0000
  H   H10       1.0  0.88708881381964  0.2898249435571991  0.26432408791312856  1.0000
  H   H11       1.0  0.8801161480086622  0.9048763353369674  0.03373460066655887  1.0000
  H   H12       1.0  0.9068610018708336  0.7565267306683509  0.2560845629400219  1.0000
  H   H13       1.0  0.9666484408589572  0.639477658553439  0.605518938000732  1.0000
  H   H14       1.0  0.8586157849188824  0.3054106586337044  0.0052841907398775145  1.0000
  H   H15       1.0  0.856317006597377  0.14495321347677104  0.9079440257532267  1.0000
  C   C21       1.0  0.9104713793930111  0.5091489317582321  0.9693690844449119  1.0000
  C   C22       1.0  0.9794364120177925  0.5026409018023443  0.041860720192230305  1.0000
  C   C23       1.0  0.04727126049853991  0.5096016442663038  0.9653287013326208  1.0000
  C   C24       1.0  0.04786526870722607  0.5233701404313409  0.8136657090492343  1.0000
  C   C25       1.0  0.9793447755764586  0.5274220748808014  0.7403617526924973  1.0000
  C   C26       1.0  0.9104507478646546  0.5181463546674472  0.8158444005578125  1.0000
  N   N4        1.0  0.11697855954561787  0.5319242180612767  0.7317364611205619  1.0000
  C   C27       1.0  0.19113414887586622  0.5281781582305285  0.797524219304298  1.0000
  H   H16       1.0  0.7915493066121795  0.44614012846694884  0.25726118733397896  1.0000
  H   H17       1.0  0.9809578693921058  0.4955977561258653  0.1588970296805392  1.0000
  H   H18       1.0  0.09901132005112401  0.5055420052021622  0.025614791792032632  1.0000
  H   H19       1.0  0.9799425248479584  0.5344981276621039  0.6232113687765803  1.0000
  H   H20       1.0  0.7348095614499057  0.41535819464547297  0.7234020611354368  1.0000
  H   H21       1.0  0.1145937039350371  0.5416099300320238  0.6188816350180675  1.0000
  H   H22       1.0  0.1965121629593265  0.6204258941345699  0.8667354680064641  1.0000
  H   H23       1.0  0.19973415383628557  0.424614978300621  0.8631286862637775  1.0000
  H   H24       1.0  0.23520772312474825  0.5367554360306359  0.711900306516112  1.0000
  Zn  Zn1       1.0  0.8281654862391683  0.5179952742419685  0.3939407005152349  1.0000
  Zn  Zn2       1.0  0.992749428028925  0.509299665249948  0.3912722493369425  1.0000
  C   C28       1.0  0.9104216752202486  0.510700938966054  0.6558535543543311  1.0000
  C   C29       1.0  0.9104950462033674  0.516595726573039  0.12935950430987764  1.0000
  C   C30       1.0  0.9118914435422633  0.7769614703690026  0.38635555174416414  1.0000
  C   C31       1.0  0.9090252122845572  0.250333466416768  0.398857588011887  1.0000
  O   O1        1.0  0.9729617029176201  0.515788709488457  0.18204109956441816  1.0000
  O   O2        1.0  0.9728704161977452  0.5049070977488228  0.6011462536083418  1.0000
  O   O3        1.0  0.9740564306951696  0.7199159045947998  0.38352472051725583  1.0000
  O   O4        1.0  0.9717756323176517  0.30077991477678023  0.3996625254811841  1.0000
  O   O5        1.0  0.8491392257860283  0.7265150276840096  0.3855504252740205  1.0000
  O   O6        1.0  0.8479532207209863  0.5115079525602291  0.6031718781762916  1.0000
  O   O7        1.0  0.8480445072594573  0.5223894956270869  0.18406499140874666  1.0000
  O   O8        1.0  0.8468584365976197  0.30738069174998395  0.4016865254028601  1.0000
