data_image0
_chemical_formula_structural       NC8NC6H8C7H8C6BrH5Zn2C4O8
_chemical_formula_sum              "N2 C31 H21 Br1 Zn2 O8"
_cell_length_a       17.457602349358154
_cell_length_b       9.274341958901593
_cell_length_c       10.302972455390005
_cell_angle_alpha    85.52848279273155
_cell_angle_beta     92.87591776842113
_cell_angle_gamma    91.07026823974832

_space_group_name_H-M_alt    "P 1"
_space_group_IT_number       1

loop_
  _space_group_symop_operation_xyz
  'x, y, z'

loop_
  _atom_site_type_symbol
  _atom_site_label
  _atom_site_symmetry_multiplicity
  _atom_site_fract_x
  _atom_site_fract_y
  _atom_site_fract_z
  _atom_site_occupancy
  N   N1        1.0  0.713135568929909  0.613163189909883  0.6253754764757777  1.0000
  C   C1        1.0  0.6523512765332292  0.5621699143599204  0.6148133319302886  1.0000
  C   C2        1.0  0.5767329972223686  0.4987406245447654  0.6016835566933636  1.0000
  C   C3        1.0  0.5179475847332742  0.5433343705546461  0.6765127069414256  1.0000
  C   C4        1.0  0.4437538442545338  0.4822571032103198  0.6639948572212935  1.0000
  C   C5        1.0  0.3813631933884526  0.5293415306574327  0.7432419048231924  1.0000
  C   C6        1.0  0.30669843883163184  0.5498481472985617  0.6874766775169419  1.0000
  C   C7        1.0  0.2479141995131505  0.5942376704592489  0.7624139463273722  1.0000
  C   C8        1.0  0.1718074156452965  0.6154170043892235  0.7044333292574909  1.0000
  N   N2        1.0  0.11063051871405911  0.6324381051390766  0.6578170710871312  1.0000
  C   C9        1.0  0.2633009974746009  0.61839054917011  0.8936245269750203  1.0000
  C   C10       1.0  0.3371785609143035  0.598315844980073  0.9497768002511084  1.0000
  C   C11       1.0  0.3959500441080339  0.5541262449758859  0.87529690524685  1.0000
  C   C12       1.0  0.42963849331446  0.37583391708718095  0.575216149465011  1.0000
  C   C13       1.0  0.4884104058424411  0.33154960389573906  0.5007865665607159  1.0000
  C   C14       1.0  0.5618186621979919  0.3927516467685339  0.5138540619028589  1.0000
  H   H1        1.0  0.5298108457584286  0.6268266300854839  0.7430394238631632  1.0000
  H   H2        1.0  0.2944491461611897  0.5332260670853646  0.5855022190311783  1.0000
  H   H3        1.0  0.2182425698647691  0.652681252437783  0.9524072571140714  1.0000
  H   H4        1.0  0.3489041829841227  0.6166674824091001  0.05137642314841584  1.0000
  H   H5        1.0  0.4525315193030372  0.5374799008066484  0.9214044744223959  1.0000
  H   H6        1.0  0.3734437086546178  0.3254953827024074  0.5646172570323829  1.0000
  H   H7        1.0  0.4770538159398553  0.24929701611114163  0.43306070692382925  1.0000
  H   H8        1.0  0.6068826945373136  0.35749526865308456  0.4555832361420862  1.0000
  C   C15       1.0  0.914325156534796  0.19934332553807987  0.6420180009919272  1.0000
  C   C16       1.0  0.9233916190712488  0.2831278357816185  0.5238861623854645  1.0000
  C   C17       1.0  0.9248274201933343  0.21824324901116854  0.40639179593460706  1.0000
  C   C18       1.0  0.9163894787476401  0.06820381401861098  0.404135221331553  1.0000
  C   C19       1.0  0.9097122713199953  0.9829272833068493  0.5215014132960878  1.0000
  C   C20       1.0  0.9094483068446628  0.046247178871363204  0.6411864119030901  1.0000
  C   C21       1.0  0.9196300022947983  0.9983694986457133  0.27801123844377473  1.0000
  H   H9        1.0  0.8505048618580003  0.2744063675617743  0.9375971695709979  1.0000
  H   H10       1.0  0.9277385020433866  0.3999463540637278  0.5220094241220608  1.0000
  H   H11       1.0  0.9317114914696952  0.28545333597105604  0.31682062691574053  1.0000
  H   H12       1.0  0.9064695511457735  0.8662661023071113  0.5195793127570385  1.0000
  H   H13       1.0  0.8695314067954161  0.7467178118287782  0.842135971944524  1.0000
  H   H14       1.0  0.9799468723400924  0.9717473378000225  0.26166758827512493  1.0000
  H   H15       1.0  0.8972638560000361  0.0721022126889379  0.19516643273024648  1.0000
  H   H16       1.0  0.8842439990166001  0.8974815853897611  0.28031619513624983  1.0000
  C   C22       1.0  0.9118867168589962  0.6227952493863735  0.2603596388048868  1.0000
  C   C23       1.0  0.9350889843831389  0.477979188858205  0.2712790496966262  1.0000
  C   C24       1.0  0.946598603729893  0.4061426060207909  0.1597578352610325  1.0000
  C   C25       1.0  0.935089113980344  0.477979138843885  0.036196669701207274  1.0000
  C   C26       1.0  0.911886753125292  0.622795255092323  0.022844723837240677  1.0000
  C   C27       1.0  0.9003976245137176  0.6945039314533825  0.13559295447346487  1.0000
  Br  Br1       1.0  0.9781575278654955  0.20916772457881305  0.17626449532747346  1.0000
  H   H17       1.0  0.9031539086595446  0.6773029238700554  0.5835512447959976  1.0000
  H   H18       1.0  0.9443252680995202  0.42033055964025134  0.3661093311316601  1.0000
  H   H19       1.0  0.9443255708940096  0.420330622644276  0.9510284531901942  1.0000
  H   H20       1.0  0.8825031065449035  0.8061916285860773  0.1262334261523459  1.0000
  H   H21       1.0  0.9031528338260895  0.6773023301453078  0.6905175333639235  1.0000
  Zn  Zn1       1.0  0.8278440473750275  0.6187216470243411  0.6347449196848667  1.0000
  Zn  Zn2       1.0  0.9959220941011414  0.6268678250923871  0.6484582684920923  1.0000
  C   C28       1.0  0.9119181234055177  0.6170505298203073  0.8787242340571111  1.0000
  C   C29       1.0  0.9118498430004771  0.6285408507130381  0.4044792295067854  1.0000
  C   C30       1.0  0.9103662015615116  0.8861641454869991  0.6361697971177529  1.0000
  C   C31       1.0  0.9134017174676702  0.35942549976623517  0.6470337326836557  1.0000
  O   O1        1.0  0.9756222468095472  0.6335542681047617  0.4580512312771632  1.0000
  O   O2        1.0  0.9757130742645569  0.6182187852460415  0.835559974072172  1.0000
  O   O3        1.0  0.9744590179000338  0.8355313916291351  0.6396954785030637  1.0000
  O   O4        1.0  0.9768762457610116  0.4162416692574342  0.6539156248143012  1.0000
  O   O5        1.0  0.8468898383583597  0.8293478000809729  0.6292875586761344  1.0000
  O   O6        1.0  0.8481438847428987  0.6120369261996701  0.8251519833212075  1.0000
  O   O7        1.0  0.8480530576281673  0.6273723588103199  0.4476416796963687  1.0000
  O   O8        1.0  0.8493070566358932  0.41005974964890557  0.6435061705789538  1.0000
