data_image0
_chemical_formula_structural       NC8NC6H8C7F3H5C7NH5Zn2C4O8
_chemical_formula_sum              "N3 C32 H18 F3 Zn2 O8"
_cell_length_a       17.457602349358154
_cell_length_b       9.27228830945605
_cell_length_c       10.302823150593486
_cell_angle_alpha    85.26210332699969
_cell_angle_beta     92.87590926728866
_cell_angle_gamma    91.12935064675003

_space_group_name_H-M_alt    "P 1"
_space_group_IT_number       1

loop_
  _space_group_symop_operation_xyz
  'x, y, z'

loop_
  _atom_site_type_symbol
  _atom_site_label
  _atom_site_symmetry_multiplicity
  _atom_site_fract_x
  _atom_site_fract_y
  _atom_site_fract_z
  _atom_site_occupancy
  N   N1        1.0  0.7138268856825158  0.6141447466631773  0.6186385874915428  1.0000
  C   C1        1.0  0.6530207450270313  0.5631204478066532  0.6082886182748644  1.0000
  C   C2        1.0  0.577375289200017  0.4996525688576168  0.595422762865607  1.0000
  C   C3        1.0  0.5186089772720581  0.5442734394529494  0.6700673157120827  1.0000
  C   C4        1.0  0.44438906799892786  0.4831590138887645  0.6578036012165789  1.0000
  C   C5        1.0  0.3820185844909584  0.5302720808833217  0.7368557446080017  1.0000
  C   C6        1.0  0.3073626213728074  0.5507911782629957  0.6810043227652729  1.0000
  C   C7        1.0  0.2485973951021311  0.5952077017516457  0.7557578460941938  1.0000
  C   C8        1.0  0.1724996911092258  0.6163999258810333  0.6976882012921275  1.0000
  N   N2        1.0  0.111330091362253  0.6334313860414789  0.6510003943229719  1.0000
  C   C9        1.0  0.2639945303033564  0.6193752642606596  0.8868697590352184  1.0000
  C   C10       1.0  0.33786348733259447  0.5992883420747461  0.9431064340372837  1.0000
  C   C11       1.0  0.3966160430995883  0.5550718633378406  0.8688094586918427  1.0000
  C   C12       1.0  0.43022812554483764  0.3766710874577037  0.5694667372757247  1.0000
  C   C13       1.0  0.48898107005968594  0.3323598379061743  0.4952204691308333  1.0000
  C   C14       1.0  0.5624155486238861  0.3935991148668987  0.5080333176661844  1.0000
  H   H1        1.0  0.5305080065167519  0.627816490000416  0.7362473473326785  1.0000
  H   H2        1.0  0.2951062156159222  0.5341589935742843  0.5790975985046996  1.0000
  H   H3        1.0  0.2189507901068522  0.6536868250847436  0.9455105595863842  1.0000
  H   H4        1.0  0.3495969635888573  0.6176511362679544  0.04463111566025135  1.0000
  H   H5        1.0  0.4531903817279826  0.5384153878005766  0.91498700886479  1.0000
  H   H6        1.0  0.3740117731677102  0.32630192811214465  0.5590772933950863  1.0000
  H   H7        1.0  0.47758924320817375  0.25005721341613585  0.4278361156114139  1.0000
  H   H8        1.0  0.607464479739994  0.35832129163912385  0.4499084498366135  1.0000
  C   C15       1.0  0.9148391615818214  0.20007311403491812  0.6370044372162014  1.0000
  C   C16       1.0  0.9512820780646009  0.2838510047373586  0.5374268256058237  1.0000
  C   C17       1.0  0.9801503390884188  0.2196354516611887  0.4327060198202417  1.0000
  C   C18       1.0  0.9722949059293148  0.07004961996234949  0.42376776365425517  1.0000
  C   C19       1.0  0.9386498750611941  0.9847250283609065  0.5252257271206504  1.0000
  C   C20       1.0  0.9103252240161823  0.04749225870720575  0.6326464493184374  1.0000
  C   C21       1.0  0.005447888851473293  0.0001169561836116273  0.3124278680624899  1.0000
  F   F1        1.0  0.004783652518798531  0.09468472719301113  0.20115649850380457  1.0000
  F   F2        1.0  0.9632115659219775  0.8777145870648023  0.28424094216209084  1.0000
  F   F3        1.0  0.08024244226351285  0.9611886161897989  0.3466320687447939  1.0000
  H   H9        1.0  0.7858872297193777  0.27639303273979565  0.8600318352568261  1.0000
  H   H10       1.0  0.9561201528255237  0.4003500137920615  0.5391641092336485  1.0000
  H   H11       1.0  0.008097480670127055  0.28746873235316994  0.35794019671192445  1.0000
  H   H12       1.0  0.9361990454932195  0.8681673029325506  0.5221068681957681  1.0000
  H   H13       1.0  0.8746042174220802  0.9160716798686981  0.9441588667650258  1.0000
  C   C22       1.0  0.9125821929304839  0.6237826961596435  0.2535773542061315  1.0000
  C   C23       1.0  0.8321503832409091  0.6303409636211859  0.24515048008191775  1.0000
  C   C24       1.0  0.7921348003864465  0.6336036450580764  0.12385552363204821  1.0000
  C   C25       1.0  0.8321503688282343  0.6303408686802738  0.009849485503667488  1.0000
  C   C26       1.0  0.9125821925124354  0.6237826886413835  0.016073520822323273  1.0000
  C   C27       1.0  0.9523778495268638  0.6205377878717433  0.13844986481388588  1.0000
  C   C28       1.0  0.7096804320606247  0.6403265981199666  0.11634584123237746  1.0000
  N   N3        1.0  0.643414060105175  0.6457298322237082  0.11031047470501187  1.0000
  H   H14       1.0  0.9430480882711234  0.6212989209988005  0.5840915034888539  1.0000
  H   H15       1.0  0.8004291014085554  0.6329274594573258  0.3326856666419218  1.0000
  H   H16       1.0  0.8004291323945201  0.6329273546955199  0.91653613316711  1.0000
  H   H17       1.0  0.014403963841674194  0.6154803128280688  0.1440990234858579  1.0000
  H   H18       1.0  0.9430480638065187  0.6212986881290807  0.6911088022802403  1.0000
  Zn  Zn1       1.0  0.828537744943174  0.6197065847604892  0.6279850218813876  1.0000
  Zn  Zn2       1.0  0.9966192808670598  0.6278577178180238  0.6416646499302838  1.0000
  C   C29       1.0  0.9126110833899798  0.6180344308672687  0.8719748298490879  1.0000
  C   C30       1.0  0.9125477681677586  0.6295317812889147  0.39767510940715045  1.0000
  C   C31       1.0  0.9111744906325633  0.8873117944036182  0.6282963293765311  1.0000
  C   C32       1.0  0.9139843128048374  0.3602526814167084  0.641353683343626  1.0000
  O   O1        1.0  0.9763223153525926  0.6345482444418633  0.45122701232688267  1.0000
  O   O2        1.0  0.9764065386275507  0.6192034005923361  0.8288050799636977  1.0000
  O   O3        1.0  0.9752456119410144  0.8366482354255933  0.6320328890678764  1.0000
  O   O4        1.0  0.9774831846293076  0.41710341714896537  0.6479991011578772  1.0000
  O   O5        1.0  0.8476737838229388  0.8304608826495365  0.6216505659787719  1.0000
  O   O6        1.0  0.8488347012718255  0.6130177813721254  0.8184226787356519  1.0000
  O   O7        1.0  0.8487504783157533  0.6283625749431396  0.44084305045561556  1.0000
  O   O8        1.0  0.8499113476443022  0.41091773732987136  0.6376152366764143  1.0000
