data_image0
_chemical_formula_structural       NC9NC5H8C6SCH8C7F3H5Zn2C4O8
_chemical_formula_sum              "N2 C32 H21 S1 F3 Zn2 O8"
_cell_length_a       17.807436237873137
_cell_length_b       10.302809429070853
_cell_length_c       9.272291681409872
_cell_angle_alpha    86.06047360622541
_cell_angle_beta     89.81650948764641
_cell_angle_gamma    88.39000425637651

_space_group_name_H-M_alt    "P 1"
_space_group_IT_number       1

loop_
  _space_group_symop_operation_xyz
  'x, y, z'

loop_
  _atom_site_type_symbol
  _atom_site_label
  _atom_site_symmetry_multiplicity
  _atom_site_fract_x
  _atom_site_fract_y
  _atom_site_fract_z
  _atom_site_occupancy
  N   N1        1.0  0.7014294868701615  0.3750176360094748  0.39835378011544176  1.0000
  C   C1        1.0  0.6407962656103352  0.33974453285151895  0.38611675215139574  1.0000
  C   C2        1.0  0.5653752024568419  0.29586867685479046  0.37089521804650794  1.0000
  C   C3        1.0  0.5468485149845796  0.22357913970980836  0.2543376125671788  1.0000
  C   C4        1.0  0.4736182125759104  0.18086689556761493  0.23946676293670754  1.0000
  C   C5        1.0  0.4178657446979536  0.21006649688614276  0.34111749592122487  1.0000
  C   C6        1.0  0.3400411509681024  0.16478996405015667  0.3254047399369162  1.0000
  C   C7        1.0  0.2779723090705588  0.2467426318589705  0.35419806026493683  1.0000
  C   C8        1.0  0.2045997585644177  0.2038275282196329  0.33934239716224446  1.0000
  C   C9        1.0  0.1414823348694519  0.2884738345681783  0.36853966622318346  1.0000
  N   N2        1.0  0.0907489115013043  0.3565236180340996  0.3920134641139028  1.0000
  C   C10       1.0  0.1927124000764127  0.07870163900352156  0.29566527432479073  1.0000
  C   C11       1.0  0.2539238373754998  0.9967350515077716  0.2668626410728481  1.0000
  C   C12       1.0  0.3271761163576344  0.03925400553283276  0.2814934778654723  1.0000
  C   C13       1.0  0.4370847453522022  0.2828521210554171  0.45791845574763923  1.0000
  C   C14       1.0  0.5103672738944368  0.32537270026496357  0.4726165263917961  1.0000
  H   H1        1.0  0.5889461560559186  0.2004886767436196  0.17473342354201304  1.0000
  H   H2        1.0  0.4603619268314825  0.1264932245287751  0.14742154144727193  1.0000
  H   H3        1.0  0.2865894599457898  0.34442429525271856  0.3862528166500885  1.0000
  H   H4        1.0  0.1362034625556835  0.04458553024684586  0.28390449866631795  1.0000
  H   H5        1.0  0.2446033653243373  0.8998629918756605  0.2334753778478813  1.0000
  H   H6        1.0  0.3737380010175765  0.9733664211775069  0.2603489330986759  1.0000
  H   H7        1.0  0.3957093510800456  0.30541474786108247  0.5389595923399708  1.0000
  H   H8        1.0  0.5241475908078104  0.38095769448565364  0.5635054986545227  1.0000
  C   C15       1.0  0.8960928273278796  0.9845171005612412  0.3951898503271376  1.0000
  C   C16       1.0  0.9389553026235782  0.9891464719692511  0.26763717561644507  1.0000
  C   C17       1.0  0.9600754988006496  0.8744794055240114  0.20401107976726407  1.0000
  C   C18       1.0  0.9389552076121623  0.7539953179521175  0.2676370996846025  1.0000
  C   C19       1.0  0.8960927973572297  0.747013963294453  0.39518984324685635  1.0000
  C   C20       1.0  0.8748514720603574  0.8628938990540338  0.45831584585629837  1.0000
  S   S1        1.0  0.0149778621123835  0.8818794363449973  0.04120986682536043  1.0000
  C   C21       1.0  0.9331264536772726  0.8931290479141581  0.9235657359866716  1.0000
  H   H9        1.0  0.8799152122825391  0.3100887676414308  0.44322768762877707  1.0000
  H   H10       1.0  0.9559798045166374  0.08155208592524277  0.21697129905667611  1.0000
  H   H11       1.0  0.9559796383218204  0.6662016994476953  0.21697118941865856  1.0000
  H   H12       1.0  0.8417774253073614  0.8584174987577242  0.5566882901551058  1.0000
  H   H13       1.0  0.8799139792840074  0.4170730457552968  0.44322612238503134  1.0000
  H   H14       1.0  0.8987245658711328  0.80545941719702  0.9433502205112814  1.0000
  H   H15       1.0  0.8987252674340555  0.9816943414107514  0.9433496850166856  1.0000
  H   H16       1.0  0.9520980591432174  0.8992722609835846  0.8093042824273691  1.0000
  C   C22       1.0  0.8945116073994562  0.3625080284666302  0.9718548620710026  1.0000
  C   C23       1.0  0.9450343951111101  0.27839948483974664  0.0512514544055207  1.0000
  C   C24       1.0  0.9996392436027266  0.2057305995748473  0.9815651723520467  1.0000
  C   C25       1.0  0.005906888492497542  0.21675173067555775  0.8305707597915561  1.0000
  C   C26       1.0  0.9538872666933802  0.2966302299468633  0.7500283470540752  1.0000
  C   C27       1.0  0.8976740004458927  0.36902305725174966  0.8185247409725984  1.0000
  C   C28       1.0  0.06358011174107969  0.13538394337087034  0.7550461969633302  1.0000
  F   F1        1.0  0.1264806842716344  0.11047446307184527  0.8409409739985181  1.0000
  F   F2        1.0  0.08606473397553649  0.1992873578764589  0.6266075904473398  1.0000
  F   F3        1.0  0.032629638127085636  0.018546214265984018  0.7255911937702746  1.0000
  H   H17       1.0  0.7887242387825774  0.6298839778897178  0.053668279893749116  1.0000
  H   H18       1.0  0.9433005705305437  0.27073068079452134  0.168326378740995  1.0000
  H   H19       1.0  0.03748217405577603  0.1416035441668162  0.04616222714996798  1.0000
  H   H20       1.0  0.9560290585372876  0.2999915323003226  0.6330056734400356  1.0000
  H   H21       1.0  0.7274312662710425  0.5014823157255672  0.7079549002232071  1.0000
  Zn  Zn1       1.0  0.8137786930041516  0.3696772618320572  0.39653243916007574  1.0000
  Zn  Zn2       1.0  0.9783997314371613  0.3618535004388146  0.3938466565422567  1.0000
  C   C29       1.0  0.8970745732993068  0.36261951631842804  0.6584860629402651  1.0000
  C   C30       1.0  0.8951056493270436  0.368912799729294  0.13189314492620663  1.0000
  C   C31       1.0  0.8960674753753411  0.6028417937192041  0.3894452147754708  1.0000
  C   C32       1.0  0.8961126913644987  0.1286889657595982  0.4009340708652789  1.0000
  O   O1        1.0  0.9577778413804164  0.3680875587729868  0.18458421411423265  1.0000
  O   O2        1.0  0.9593459387950798  0.3575057207877552  0.6037561319059128  1.0000
  O   O3        1.0  0.9585318579202519  0.5514882993731947  0.3865037572441481  1.0000
  O   O4        1.0  0.9585918656775074  0.17410499131294066  0.40183648160264274  1.0000
  O   O5        1.0  0.8335865025866962  0.5574257736291519  0.38854261500863285  1.0000
  O   O6        1.0  0.8344005831709256  0.36344475428385214  0.605794912805063  1.0000
  O   O7        1.0  0.8328324793324678  0.37402653368760697  0.1866212617945  1.0000
  O   O8        1.0  0.8336465040301863  0.18004395777338789  0.4038736373652081  1.0000
