data_image0
_chemical_formula_structural       NC8NC6H8C6BrH5C6NCH9Zn2C4O8
_chemical_formula_sum              "N3 C31 H22 Br1 Zn2 O8"
_cell_length_a       17.457602349358154
_cell_length_b       10.302969083221269
_cell_length_c       9.273390368590327
_cell_angle_alpha    86.16778746315522
_cell_angle_beta     92.8511133753594
_cell_angle_gamma    91.68807063265206

_space_group_name_H-M_alt    "P 1"
_space_group_IT_number       1

loop_
  _space_group_symop_operation_xyz
  'x, y, z'

loop_
  _atom_site_type_symbol
  _atom_site_label
  _atom_site_symmetry_multiplicity
  _atom_site_fract_x
  _atom_site_fract_y
  _atom_site_fract_z
  _atom_site_occupancy
  N   N1        1.0  0.7225530244365538  0.4377891199316073  0.4756968840171658  1.0000
  C   C1        1.0  0.6614760808451086  0.3917661715286569  0.46391556530668465  1.0000
  C   C2        1.0  0.5854937790947726  0.3345194374775482  0.4492701944913715  1.0000
  C   C3        1.0  0.526958168710265  0.37546289281876133  0.5323915869627318  1.0000
  C   C4        1.0  0.4524138924412136  0.32034025332168325  0.518428118869573  1.0000
  C   C5        1.0  0.3902869735443096  0.3635730430503885  0.6064568260190935  1.0000
  C   C6        1.0  0.3157455080760823  0.38144383224900924  0.5445705153438996  1.0000
  C   C7        1.0  0.2572098847847323  0.42220456710731735  0.6278117147663322  1.0000
  C   C8        1.0  0.1812304705194082  0.4406575079424513  0.5634666868154803  1.0000
  N   N2        1.0  0.12015593794328241  0.455487296348581  0.5117334519764996  1.0000
  C   C9        1.0  0.2727235168563174  0.4453429704965217  0.7735035773507659  1.0000
  C   C10       1.0  0.3464802421845154  0.42786515403431613  0.835820044128128  1.0000
  C   C11       1.0  0.4050042178891035  0.3872892712830365  0.7530868235107269  1.0000
  C   C12       1.0  0.4376940059625806  0.22358175622120924  0.4197530049999034  1.0000
  C   C13       1.0  0.4962178609140593  0.1829211343145727  0.33707553592886774  1.0000
  C   C14       1.0  0.5699773202595257  0.23816194765158238  0.3516493379535144  1.0000
  H   H1        1.0  0.5392959979178608  0.45133975680516913  0.6063383001384366  1.0000
  H   H2        1.0  0.3034100174930797  0.36539598570134735  0.4313438125219178  1.0000
  H   H3        1.0  0.2278570605436177  0.47683994169971333  0.8387995479830781  1.0000
  H   H4        1.0  0.358302056544186  0.44546619574135815  0.948632502464313  1.0000
  H   H5        1.0  0.4614855341863022  0.37279148807097373  0.8042557375808783  1.0000
  H   H6        1.0  0.38121034376517315  0.17814790154362847  0.40793160371884896  1.0000
  H   H7        1.0  0.48439395321228806  0.10814765626087053  0.2617989264709102  1.0000
  H   H8        1.0  0.6148437728314134  0.2058009833148784  0.2869206135814619  1.0000
  C   C15       1.0  0.9213581400146601  0.065390904333132  0.49372177436248776  1.0000
  C   C16       1.0  0.0008969522872399605  0.06624989381405988  0.5252208825377485  1.0000
  C   C17       1.0  0.04035248430440186  0.9497381463919686  0.5408459486924109  1.0000
  C   C18       1.0  0.0008970125485938674  0.8311675342823938  0.5252206145166787  1.0000
  C   C19       1.0  0.9213581518183613  0.8278759213021226  0.49372167987903315  1.0000
  C   C20       1.0  0.8819728366899651  0.9456058070095205  0.47812429869427775  1.0000
  Br  Br1       1.0  0.14853896062683214  0.9525608789391427  0.5836905484290618  1.0000
  H   H9        1.0  0.8914204995662737  0.3923692491698081  0.48186516145930414  1.0000
  H   H10       1.0  0.03255984943644785  0.15707533616142877  0.5377602405186284  1.0000
  H   H11       1.0  0.032559939768394885  0.7419943998352093  0.5377595994649615  1.0000
  H   H12       1.0  0.8206294457039277  0.9440052284247928  0.4538311677063078  1.0000
  H   H13       1.0  0.8914202796711  0.4993352675328401  0.48186727131268015  1.0000
  C   C21       1.0  0.9213937059382895  0.44258647427895204  0.07047918363658856  1.0000
  C   C22       1.0  0.9918579082769484  0.44314340091453097  0.15046816477194103  1.0000
  C   C23       1.0  0.061093056395233214  0.45571437166557116  0.08132847549907307  1.0000
  C   C24       1.0  0.061623103803519985  0.4681584324489074  0.9297485259962985  1.0000
  C   C25       1.0  0.9916265286152253  0.4654328591933281  0.8489923263406243  1.0000
  C   C26       1.0  0.921322605272274  0.45068039327985354  0.9169642729821641  1.0000
  N   N3        1.0  0.13215495438137692  0.48228195639055027  0.8553528795550975  1.0000
  C   C27       1.0  0.2079044642992114  0.4858067422929486  0.929206604069142  1.0000
  H   H14       1.0  0.8002992646031776  0.37483330578816254  0.34534384004529084  1.0000
  H   H15       1.0  0.993450805323798  0.4369474876968704  0.2676606589206645  1.0000
  H   H16       1.0  0.11395327127337551  0.4568726577344113  0.14724044464258856  1.0000
  H   H17       1.0  0.9921976107477292  0.4718554397771124  0.7319164526281772  1.0000
  H   H18       1.0  0.742527045539073  0.3418598380642821  0.8052681364627055  1.0000
  H   H19       1.0  0.12966564913789913  0.49077535350885615  0.7422514279053694  1.0000
  H   H20       1.0  0.21288360729663158  0.5693108902117296  0.9991264111101645  1.0000
  H   H21       1.0  0.21726278242469155  0.39342078052575036  0.9956087417621258  1.0000
  H   H22       1.0  0.2528652924646533  0.49762278479747324  0.8483910428879775  1.0000
  Zn  Zn1       1.0  0.8372926359119961  0.44289302932111463  0.48610458088503616  1.0000
  Zn  Zn2       1.0  0.005416311226341897  0.4503728553573656  0.5013375550700159  1.0000
  C   C28       1.0  0.9213343172115456  0.4439783410107938  0.7569603169941028  1.0000
  C   C29       1.0  0.9213764658202414  0.44928926479771336  0.23048212676641433  1.0000
  C   C30       1.0  0.9213546840220999  0.6836949432839776  0.4879779516229177  1.0000
  C   C31       1.0  0.9213560416343455  0.20957110090106235  0.49946456378073245  1.0000
  O   O1        1.0  0.9851727384769344  0.4543716735881351  0.2899614104422341  1.0000
  O   O2        1.0  0.9851400240362396  0.44457196373276675  0.7090420933640922  1.0000
  O   O3        1.0  0.9851556102851562  0.6381461277632354  0.49183685230230867  1.0000
  O   O4        1.0  0.9851570948678757  0.2607975152592692  0.5071665382397994  1.0000
  O   O5        1.0  0.8575517948981036  0.6324683668680551  0.4802755925094049  1.0000
  O   O6        1.0  0.8575362086521702  0.4388957619098961  0.6974807567222081  1.0000
  O   O7        1.0  0.8575689232894778  0.44869540995696555  0.27839834096525284  1.0000
  O   O8        1.0  0.8575532796682026  0.2551212433753407  0.4956035768211886  1.0000
