data_image0
_chemical_formula_structural       NC8NC6H8C7F3H5C7F3H5Zn2C4O8
_chemical_formula_sum              "N2 C32 H18 F6 Zn2 O8"
_cell_length_a       17.457602349358154
_cell_length_b       9.27228830945605
_cell_length_c       9.272291681409872
_cell_angle_alpha    85.76598936101391
_cell_angle_beta     93.27365386630078
_cell_angle_gamma    91.12935064675003

_space_group_name_H-M_alt    "P 1"
_space_group_IT_number       1

loop_
  _space_group_symop_operation_xyz
  'x, y, z'

loop_
  _atom_site_type_symbol
  _atom_site_label
  _atom_site_symmetry_multiplicity
  _atom_site_fract_x
  _atom_site_fract_y
  _atom_site_fract_z
  _atom_site_occupancy
  N   N1        1.0  0.7080470887275923  0.6004370741332066  0.4656011884793805  1.0000
  C   C1        1.0  0.6471976424462083  0.5493100693610307  0.4541045733853575  1.0000
  C   C2        1.0  0.5714983541961629  0.48571451858681436  0.439813343682254  1.0000
  C   C3        1.0  0.5130443648474631  0.5310761099502972  0.5227275702829044  1.0000
  C   C4        1.0  0.4387731425876986  0.46983998778970837  0.5091051911022395  1.0000
  C   C5        1.0  0.3767334235947333  0.5177375134238287  0.5969153136158611  1.0000
  C   C6        1.0  0.3018437708172567  0.537702380032308  0.5348762595919054  1.0000
  C   C7        1.0  0.24339132307260108  0.5828607056365924  0.6179115292282453  1.0000
  C   C8        1.0  0.1670506480851672  0.6034766868887209  0.5534085011554459  1.0000
  N   N2        1.0  0.105685700442916  0.6200448496359916  0.5015482748039017  1.0000
  C   C9        1.0  0.2593370476786763  0.6083293318289404  0.7635489862841636  1.0000
  C   C10       1.0  0.333441306316884  0.5888004633993591  0.8260159746520699  1.0000
  C   C11       1.0  0.3918829938143772  0.5438467130123406  0.7434878327499419  1.0000
  C   C12       1.0  0.4242425871325576  0.36247546759233806  0.4109817182609308  1.0000
  C   C13       1.0  0.4826848755434692  0.31742744957378255  0.32850990127678203  1.0000
  C   C14       1.0  0.556172964743002  0.3787938723562365  0.34274225161378435  1.0000
  H   H1        1.0  0.5252203000066945  0.6152758852283544  0.5962395136060041  1.0000
  H   H2        1.0  0.2891609739875978  0.5200589436956811  0.42167955728397377  1.0000
  H   H3        1.0  0.2145386682671129  0.6432228032837775  0.8286864469498207  1.0000
  H   H4        1.0  0.34559957512951966  0.6081707181143361  0.9387883088230422  1.0000
  H   H5        1.0  0.4486505453568277  0.5276484714537266  0.7947812722963938  1.0000
  H   H6        1.0  0.3679827639623699  0.31200321061194236  0.3994412552087141  1.0000
  H   H7        1.0  0.47101110373696253  0.23445614949796045  0.25366021239809466  1.0000
  H   H8        1.0  0.6009786938042063  0.34293925825618055  0.27817788249945563  1.0000
  C   C15       1.0  0.9091362097460334  0.18654769145885575  0.4860017424074856  1.0000
  C   C16       1.0  0.9451624804682226  0.2693374430118225  0.375392189016555  1.0000
  C   C17       1.0  0.9735925759338343  0.2040827132945615  0.25906964049025105  1.0000
  C   C18       1.0  0.9656997439410124  0.054408184541206106  0.24914113842412577  1.0000
  C   C19       1.0  0.9324792264717644  0.9700903913968225  0.36183936290937524  1.0000
  C   C20       1.0  0.9046040377886172  0.03392359048199545  0.48116094448856406  1.0000
  C   C21       1.0  0.9983868661668491  0.983370660865215  0.12546618853494285  1.0000
  F   F1        1.0  0.9972570558597449  0.07683425198218385  0.0018673564978761714  1.0000
  F   F2        1.0  0.9560326054500284  0.8606885842445383  0.09415650722319024  1.0000
  F   F3        1.0  0.07332453443149656  0.9447817396345566  0.16345978268105021  1.0000
  H   H9        1.0  0.7811174537088204  0.26508077936758423  0.7337377594927144  1.0000
  H   H10       1.0  0.9500078242512356  0.385853691664249  0.37732194172983524  1.0000
  H   H11       1.0  0.0012268875256347123  0.27117406981642933  0.17602070841429418  1.0000
  H   H12       1.0  0.930015347189824  0.8535017165757716  0.3583749738043187  1.0000
  H   H13       1.0  0.8701864399226545  0.9055942448057219  0.8271850036346589  1.0000
  C   C22       1.0  0.905274931993001  0.6064524091611128  0.060095780978389746  1.0000
  C   C23       1.0  0.957362980524301  0.5181928378708462  0.14549882298056782  1.0000
  C   C24       1.0  0.013551169526630602  0.4430674428783614  0.08218852210309602  1.0000
  C   C25       1.0  0.019885467422404934  0.4559619575829381  0.9318030341986021  1.0000
  C   C26       1.0  0.9662941649527209  0.5393662010895091  0.8451188938004588  1.0000
  C   C27       1.0  0.9084652836235116  0.6140188910222839  0.9070668399919573  1.0000
  C   C28       1.0  0.07925843638024  0.3714858425602008  0.8630420355026169  1.0000
  F   F4        1.0  0.14363340064686625  0.3502920463095742  0.9559081586657783  1.0000
  F   F5        1.0  0.10183734240912368  0.44482221968650215  0.7366332027355522  1.0000
  F   F6        1.0  0.048349799219561174  0.23844935091080877  0.8309763191620854  1.0000
  H   H14       1.0  0.7956676713814645  0.892679361394944  0.12875316575019968  1.0000
  H   H15       1.0  0.9556381782865623  0.5094915103440636  0.2624346303936189  1.0000
  H   H16       1.0  0.05257322414786758  0.3757056469663911  0.15129172761053034  1.0000
  H   H17       1.0  0.968461140013626  0.543322611844002  0.7283068733888416  1.0000
  H   H18       1.0  0.7338454615215237  0.7436616769342628  0.77721587627896  1.0000
  Zn  Zn1       1.0  0.8227970546930828  0.6060916597626116  0.47598308976160264  1.0000
  Zn  Zn2       1.0  0.9909358279712376  0.6143785399605599  0.4911782478355158  1.0000
  C   C29       1.0  0.9078912784320029  0.6068406914895959  0.7470038870552953  1.0000
  C   C30       1.0  0.9058434310988454  0.6136314204651803  0.22015774761587048  1.0000
  C   C31       1.0  0.9054351029337784  0.8736999586053957  0.4763288861956425  1.0000
  C   C32       1.0  0.9082995587841147  0.3467704177425286  0.4908328300783169  1.0000
  O   O1        1.0  0.9698420464548494  0.6191792955585043  0.2796425250612531  1.0000
  O   O2        1.0  0.9715061057856088  0.6075812745598232  0.6990514740821403  1.0000
  O   O3        1.0  0.9695218584970527  0.8230734786540284  0.4804794095110172  1.0000
  O   O4        1.0  0.9718262359065318  0.4036870979918379  0.4982144762600562  1.0000
  O   O5        1.0  0.8419065893802404  0.8167830989049312  0.46894685614410636  1.0000
  O   O6        1.0  0.8438908271042034  0.6012926275911754  0.6875188339194807  1.0000
  O   O7        1.0  0.8422267615623948  0.6128905828246023  0.26810815135581256  1.0000
  O   O8        1.0  0.8442109514734023  0.39739837590399474  0.48668021073398005  1.0000
