data_image0
_chemical_formula_structural       NC8NC6H8C6NH7C7F3H5Zn2C4O8
_chemical_formula_sum              "N3 C31 H20 F3 Zn2 O8"
_cell_length_a       17.457602349358154
_cell_length_b       9.274771166103582
_cell_length_c       9.272291681409872
_cell_angle_alpha    85.95122569860638
_cell_angle_beta     93.27365386630078
_cell_angle_gamma    92.29117059398062

_space_group_name_H-M_alt    "P 1"
_space_group_IT_number       1

loop_
  _space_group_symop_operation_xyz
  'x, y, z'

loop_
  _atom_site_type_symbol
  _atom_site_label
  _atom_site_symmetry_multiplicity
  _atom_site_fract_x
  _atom_site_fract_y
  _atom_site_fract_z
  _atom_site_occupancy
  N   N1        1.0  0.7254984332618574  0.6004833590184626  0.4726046253620304  1.0000
  C   C1        1.0  0.6640914924124549  0.5493548756454798  0.46088428091512723  1.0000
  C   C2        1.0  0.5876987511767569  0.485757485678197  0.4463147600920152  1.0000
  C   C3        1.0  0.5297393896845977  0.5311203889058482  0.5294274868693642  1.0000
  C   C4        1.0  0.4548004419121974  0.4698824957872292  0.5155371413166243  1.0000
  C   C5        1.0  0.3932830028861797  0.5177814066251256  0.6035568611352791  1.0000
  C   C6        1.0  0.31861104924314343  0.5377468506206045  0.5416051724226019  1.0000
  C   C7        1.0  0.2606510129224969  0.5829064822105803  0.6248380527542992  1.0000
  C   C8        1.0  0.1845351368962704  0.6035230596800434  0.5604252392396394  1.0000
  N   N2        1.0  0.1233508503503382  0.6200917015811174  0.5086375143840542  1.0000
  C   C9        1.0  0.27687445027197244  0.6083758449594976  0.7705869593129242  1.0000
  C   C10       1.0  0.3507657639485587  0.5888464117520509  0.8329684902769465  1.0000
  C   C11       1.0  0.4087172707330513  0.5438913612956877  0.7502436328909279  1.0000
  C   C12       1.0  0.4390991717423057  0.3625148705914947  0.4169438464168349  1.0000
  C   C13       1.0  0.4970502515354381  0.3174655497773593  0.33427490143810235  1.0000
  C   C14       1.0  0.5712074870601346  0.3788337472861578  0.3487757883365332  1.0000
  H   H1        1.0  0.5428334485937933  0.6153225992542994  0.603307884423639  1.0000
  H   H2        1.0  0.3057358664139003  0.5201029040330969  0.428331263272381  1.0000
  H   H3        1.0  0.23245655316877137  0.6432703255388721  0.8358771121580497  1.0000
  H   H4        1.0  0.3631352481811637  0.6082172266577603  0.9458255877656963  1.0000
  H   H5        1.0  0.4653081948411231  0.527692651281447  0.8014661896990336  1.0000
  H   H6        1.0  0.3822889934471195  0.31204115394569776  0.40518251915708325  1.0000
  H   H7        1.0  0.4844717514097232  0.23449185015883445  0.2590621340775774  1.0000
  H   H8        1.0  0.615622253406268  0.3429780962651716  0.28405452112801477  1.0000
  C   C15       1.0  0.9220744582436816  0.18658200659978674  0.49119401894224834  1.0000
  C   C16       1.0  0.9039106670688769  0.2678679861736979  0.3606268786456257  1.0000
  C   C17       1.0  0.8929113396086844  0.20114177815413758  0.22989065825894128  1.0000
  C   C18       1.0  0.9001124174908623  0.05174570324663308  0.22878517511447094  1.0000
  C   C19       1.0  0.916849775045125  0.9690545038284369  0.3574521131366313  1.0000
  C   C20       1.0  0.9267821595707031  0.03398243042914739  0.49006130329043107  1.0000
  N   N3        1.0  0.8752137353378548  0.28553783935164456  0.09794881151162493  1.0000
  H   H9        1.0  0.00969096015096782  0.2733200279350452  0.8146412888298831  1.0000
  H   H10       1.0  0.9000377414021192  0.38426497214235233  0.35972233028960066  1.0000
  H   H11       1.0  0.8920128887276632  0.9989862425134514  0.12822975105014112  1.0000
  H   H12       1.0  0.9202170265189058  0.8530203335630223  0.35362822635482183  1.0000
  H   H13       1.0  0.9826921956277379  0.7415490976730981  0.7097848468708596  1.0000
  H   H14       1.0  0.8699242686864286  0.39735063757783773  0.09742292763296678  1.0000
  H   H15       1.0  0.8671956422476691  0.23682033590371  0.9997716509463368  1.0000
  C   C21       1.0  0.9227918684119816  0.606498868010779  0.06712554068239673  1.0000
  C   C22       1.0  0.9739175247243518  0.5182367442401958  0.15214236297821393  1.0000
  C   C23       1.0  0.029286538032443632  0.4431091766097843  0.08850331692817814  1.0000
  C   C24       1.0  0.03576143915614116  0.45600406422569995  0.9381742548096934  1.0000
  C   C25       1.0  0.9830795858691695  0.5394107197957649  0.8518550874333473  1.0000
  C   C26       1.0  0.9260647258054525  0.6140655686957643  0.914129710262443  1.0000
  C   C27       1.0  0.09421327112458444  0.37152550614078117  0.8690435926328908  1.0000
  F   F1        1.0  0.15835713587075073  0.35033109696232145  0.9618169727468291  1.0000
  F   F2        1.0  0.11759184519716159  0.44486400416633853  0.7429556763808867  1.0000
  F   F3        1.0  0.06185398920634122  0.2384851670556789  0.8363957149019403  1.0000
  H   H16       1.0  0.8163056584428956  0.8927340979718983  0.13703544104915477  1.0000
  H   H17       1.0  0.9720978422398163  0.5095351650696887  0.26904009379386973  1.0000
  H   H18       1.0  0.06757407211056998  0.3757454325843608  0.15731175040514822  1.0000
  H   H19       1.0  0.985289702074648  0.5433672449702627  0.7350603800879227  1.0000
  H   H20       1.0  0.7528585431147844  0.7437121038969641  0.7848460572441933  1.0000
  Zn  Zn1       1.0  0.8403100574603468  0.6061381081793502  0.48301127084331763  1.0000
  Zn  Zn2       1.0  0.008539191805354118  0.6144252280351428  0.4982426919127325  1.0000
  C   C28       1.0  0.9254124487248427  0.6068871615684468  0.7540353458643934  1.0000
  C   C29       1.0  0.9234386482585731  0.6136780869329528  0.22721892233353902  1.0000
  C   C30       1.0  0.9258661364682711  0.8737541462951155  0.48452810852634487  1.0000
  C   C31       1.0  0.9229848937769384  0.3468093665492382  0.49672623367944757  1.0000
  O   O1        1.0  0.9874977582639776  0.619226122471674  0.28672797701773134  1.0000
  O   O2        1.0  0.989035351478927  0.6076277660564497  0.7060861736476998  1.0000
  O   O3        1.0  0.9894008552420535  0.8231262022181953  0.48845709276176397  1.0000
  O   O4        1.0  0.9871321967351543  0.4037276928376563  0.5043569445599114  1.0000
  O   O5        1.0  0.8617169951221789  0.8168356405503527  0.476897012990815  1.0000
  O   O6        1.0  0.8613515006888907  0.6013389372191684  0.6945260146635668  1.0000
  O   O7        1.0  0.8598139005457803  0.6129372278672367  0.2751660842030321  1.0000
  O   O8        1.0  0.859448339374286  0.3974387888790074  0.49279515988364375  1.0000
