data_image0
_chemical_formula_structural       NC9NC5H8C7F3H5C6OCH8Zn2C4O8
_chemical_formula_sum              "N2 C32 H21 F3 O9 Zn2"
_cell_length_a       17.807436237873137
_cell_length_b       9.27228830945605
_cell_length_c       9.273891588657152
_cell_angle_alpha    85.77446637080028
_cell_angle_beta     89.08663702953788
_cell_angle_gamma    87.81380667828488

_space_group_name_H-M_alt    "P 1"
_space_group_IT_number       1

loop_
  _space_group_symop_operation_xyz
  'x, y, z'

loop_
  _atom_site_type_symbol
  _atom_site_label
  _atom_site_symmetry_multiplicity
  _atom_site_fract_x
  _atom_site_fract_y
  _atom_site_fract_z
  _atom_site_occupancy
  N   N1        1.0  0.7041218109621945  0.5278943226381414  0.3906470846233445  1.0000
  C   C1        1.0  0.6437739017274852  0.48866596647121785  0.37861291409263376  1.0000
  C   C2        1.0  0.5687077354396775  0.4398702112783859  0.363643712297649  1.0000
  C   C3        1.0  0.551373720093147  0.359417158700698  0.24751069781635504  1.0000
  C   C4        1.0  0.4784892547090936  0.3119154604694221  0.23288549363142752  1.0000
  C   C5        1.0  0.4218923753547763  0.3444468314513027  0.33435944399631623  1.0000
  C   C6        1.0  0.3444340432793305  0.2940933350201689  0.31890707619891034  1.0000
  C   C7        1.0  0.2816999078928167  0.38523576893766776  0.3472290474803488  1.0000
  C   C8        1.0  0.2086742666398397  0.3375085179197337  0.3326201882007922  1.0000
  C   C9        1.0  0.14487328735061408  0.4316463005489044  0.36133066828792404  1.0000
  N   N2        1.0  0.0935903244568521  0.5073265760936401  0.3844131213509516  1.0000
  C   C10       1.0  0.1978007906203382  0.19835181050158535  0.2896626967407523  1.0000
  C   C11       1.0  0.2596776637987636  0.10719389323145068  0.26133149302202185  1.0000
  C   C12       1.0  0.3325868186409346  0.15448051852434697  0.2757178127232336  1.0000
  C   C13       1.0  0.4399142176899478  0.4254516432212625  0.45073295290949034  1.0000
  C   C14       1.0  0.5128531658728109  0.47274011785925607  0.46518649066569684  1.0000
  H   H1        1.0  0.5941339266483147  0.33369248865037315  0.16804622958209103  1.0000
  H   H2        1.0  0.466159128318286  0.2513987265958968  0.14116005792392938  1.0000
  H   H3        1.0  0.2895391283219056  0.4938695458654314  0.3787222089405613  1.0000
  H   H4        1.0  0.1415673090578612  0.16041023221905015  0.2780981173383603  1.0000
  H   H5        1.0  0.2511392957183534  0.9994594882095874  0.22850132473576945  1.0000
  H   H6        1.0  0.3796702589500865  0.081205887407368  0.25495202509136816  1.0000
  H   H7        1.0  0.3978697608327202  0.45059030841307024  0.5316372475900031  1.0000
  H   H8        1.0  0.5257080024097505  0.5346030119674252  0.555748863282034  1.0000
  C   C15       1.0  0.9010644779421056  0.09368927889231982  0.38971614320480485  1.0000
  C   C16       1.0  0.9371072629131795  0.17276750871322766  0.27529598448824255  1.0000
  C   C17       1.0  0.9657433514249486  0.10456557679722178  0.15596910959954013  1.0000
  C   C18       1.0  0.9580739305714804  0.9556827062905259  0.14687876070542805  1.0000
  C   C19       1.0  0.9247670551236247  0.8747941092785991  0.26308978221874146  1.0000
  C   C20       1.0  0.8966548744646872  0.941520299879234  0.3853565410591393  1.0000
  C   C21       1.0  0.990930998562501  0.881263005805551  0.019748652965415836  1.0000
  F   F1        1.0  0.9906451327926427  0.9747630873719793  0.8962816175153274  1.0000
  F   F2        1.0  0.9496296030226826  0.7628429147891658  0.9929345168643224  1.0000
  F   F3        1.0  0.06412148085939107  0.8351223821472197  0.049789933448060264  1.0000
  H   H9        1.0  0.7739527571163413  0.18531981857659718  0.6510071415509  1.0000
  H   H10       1.0  0.9418431379056301  0.2887951456631548  0.2767116049250353  1.0000
  H   H11       1.0  0.9933783997276316  0.1688111023408947  0.0699970408826951  1.0000
  H   H12       1.0  0.9223753433407249  0.7584523342426648  0.2598870719358499  1.0000
  H   H13       1.0  0.8606241651058555  0.8168878908518441  0.7349977983472138  1.0000
  C   C22       1.0  0.9001106900656768  0.5137165126503174  0.9642609519127805  1.0000
  C   C23       1.0  0.9613374543092128  0.5714403541511819  0.03153603527641602  1.0000
  C   C24       1.0  0.018245371060688242  0.6401689104118904  0.9504404738703278  1.0000
  C   C25       1.0  0.014129473011923244  0.6515245366177818  0.7990075236473846  1.0000
  C   C26       1.0  0.9544861098604964  0.5928432229718696  0.7303694656164033  1.0000
  C   C27       1.0  0.8976086267828657  0.5214929959905532  0.8108116857658185  1.0000
  O   O1        1.0  0.0774290304744627  0.6962237457478277  0.024390454764320113  1.0000
  C   C28       1.0  0.13891908265359443  0.768928970254166  0.9559328754947827  1.0000
  H   H14       1.0  0.721818513583264  0.434491959208402  0.07859527116001197  1.0000
  H   H15       1.0  0.9642236073742139  0.566256457089976  0.14845008915869418  1.0000
  H   H16       1.0  0.05713384455776316  0.704363103632297  0.7331090060319658  1.0000
  H   H17       1.0  0.9538410318827273  0.6003153114868065  0.6132597378040576  1.0000
  H   H18       1.0  0.7787441168192203  0.462371420185818  0.5376134300968509  1.0000
  H   H19       1.0  0.1182381203693994  0.8676833105739477  0.8913578619877134  1.0000
  H   H20       1.0  0.17062667000250897  0.6956289853652966  0.885387060974971  1.0000
  H   H21       1.0  0.17720888016021918  0.8014029761909391  0.03998324346097881  1.0000
  Zn  Zn1       1.0  0.8165140051769944  0.5219551399163236  0.38885645340160324  1.0000
  Zn  Zn2       1.0  0.9811981382245836  0.5132541003181004  0.38621566288569387  1.0000
  C   C29       1.0  0.898109817102767  0.5142722608373806  0.6508250869579915  1.0000
  C   C30       1.0  0.8996041147527996  0.520938707133975  0.12424713259889186  1.0000
  C   C31       1.0  0.897501476134328  0.7812096154065671  0.38043679917126516  1.0000
  C   C32       1.0  0.9002124083196361  0.2539996218427565  0.3946355070520371  1.0000
  O   O2        1.0  0.9619309064389888  0.5200542444867149  0.1769378224752085  1.0000
  O   O3        1.0  0.9607744787587434  0.5085517429090258  0.5961296888579131  1.0000
  O   O4        1.0  0.9602823888171299  0.7241070908876575  0.3777892392196025  1.0000
  O   O5        1.0  0.9624229404507759  0.3044989088111696  0.3952781648869237  1.0000
  O   O6        1.0  0.835289146752204  0.7307103343939938  0.37979395229395596  1.0000
  O   O7        1.0  0.8357812278968222  0.5151567201081331  0.598134316159431  1.0000
  O   O8        1.0  0.836937661010632  0.5266591554583293  0.17894071706046288  1.0000
  O   O9        1.0  0.8374296947536475  0.3111038104504362  0.39728116759235665  1.0000
