data_image0
_chemical_formula_structural       NC9NC5H8C7NH5C6SCH8Zn2C4O8
_chemical_formula_sum              "N3 C32 H21 S1 Zn2 O8"
_cell_length_a       17.807436237873137
_cell_length_b       10.302819778424748
_cell_length_c       10.302812801239593
_cell_angle_alpha    85.56070422118889
_cell_angle_beta     89.39214003622364
_cell_angle_gamma    88.39001009685678

_space_group_name_H-M_alt    "P 1"
_space_group_IT_number       1

loop_
  _space_group_symop_operation_xyz
  'x, y, z'

loop_
  _atom_site_type_symbol
  _atom_site_label
  _atom_site_symmetry_multiplicity
  _atom_site_fract_x
  _atom_site_fract_y
  _atom_site_fract_z
  _atom_site_occupancy
  N   N1        1.0  0.7074119770727941  0.3873406667708459  0.5575840994018644  1.0000
  C   C1        1.0  0.6468244610516845  0.352161761635269  0.5465636296519489  1.0000
  C   C2        1.0  0.5714602502525357  0.30840307775041165  0.5328553618729588  1.0000
  C   C3        1.0  0.5533689202400698  0.23701050769803866  0.4278855008263873  1.0000
  C   C4        1.0  0.480194160389885  0.19441273601818  0.41449305384216184  1.0000
  C   C5        1.0  0.4240620121398607  0.22283012028149463  0.5060380262573028  1.0000
  C   C6        1.0  0.3462961054765264  0.17767454086274093  0.491887371989284  1.0000
  C   C7        1.0  0.2841197206095641  0.25940556491629474  0.5178181711068488  1.0000
  C   C8        1.0  0.2108026559259146  0.21660481708770263  0.504439400830617  1.0000
  C   C9        1.0  0.1475761806042247  0.3010263686134409  0.530733989861734  1.0000
  N   N2        1.0  0.0967550827400134  0.36889545541316915  0.5518741131805875  1.0000
  C   C10       1.0  0.1990784313200389  0.09181514422890502  0.46510448951742167  1.0000
  C   C11       1.0  0.260397446373023  0.01007027216415457  0.4391653033327443  1.0000
  C   C12       1.0  0.3335950792725134  0.05247660078686689  0.452341598699568  1.0000
  C   C13       1.0  0.4428447463950538  0.29471690427753505  0.6112270482705326  1.0000
  C   C14       1.0  0.5160723777253318  0.33712434072855024  0.6244638933319611  1.0000
  H   H1        1.0  0.5957638946005314  0.21453261067852947  0.35619528199980044  1.0000
  H   H2        1.0  0.4672816753961395  0.1407473946714488  0.33159864273221173  1.0000
  H   H3        1.0  0.2926171474370202  0.3568404722767238  0.5466861677270085  1.0000
  H   H4        1.0  0.1426134202254402  0.057789567625947  0.4545129248727313  1.0000
  H   H5        1.0  0.251201675547352  0.9134552211840031  0.40909727320792166  1.0000
  H   H6        1.0  0.3802359384141352  0.9867517876390551  0.4332991625043294  1.0000
  H   H7        1.0  0.4011666515693351  0.3166559085751395  0.6842113582314309  1.0000
  H   H8        1.0  0.5295132127382258  0.3920099011906346  0.7063170056824457  1.0000
  C   C15       1.0  0.9020871125452828  0.9968648747885414  0.5547346632931061  1.0000
  C   C16       1.0  0.8582358662803312  0.9890433386144806  0.6690662098301936  1.0000
  C   C17       1.0  0.836419439174353  0.8680494712679547  0.7259472357918351  1.0000
  C   C18       1.0  0.8582359269138186  0.7537423259312959  0.6690662131956282  1.0000
  C   C19       1.0  0.902087124928556  0.7593609013841608  0.5547347016990662  1.0000
  C   C20       1.0  0.9237836490217823  0.8814378584528364  0.49816630395845496  1.0000
  C   C21       1.0  0.7914655559527879  0.8611603553326157  0.8431538703181987  1.0000
  N   N3        1.0  0.7553373437841976  0.8556237906414372  0.937349558895127  1.0000
  H   H9        1.0  0.9186968947233256  0.3271499131925959  0.5114281001803789  1.0000
  H   H10       1.0  0.8409414235999666  0.07681728411569955  0.7141570880689405  1.0000
  H   H11       1.0  0.840941517363186  0.6606676755493051  0.7141570558512356  1.0000
  H   H12       1.0  0.9576001806004119  0.8866201066127132  0.4099979314133937  1.0000
  H   H13       1.0  0.918696963643423  0.43416682934056566  0.5114281978432742  1.0000
  C   C22       1.0  0.9020871399286934  0.3781129179579745  0.17348622804076452  1.0000
  C   C23       1.0  0.8767510286690797  0.5087842037644621  0.16266052532625475  1.0000
  C   C24       1.0  0.8639508967625551  0.5736197962786969  0.04030125266658424  1.0000
  C   C25       1.0  0.8767509609405869  0.5087840706873239  0.927509356630277  1.0000
  C   C26       1.0  0.9020870911988935  0.3781129115172792  0.9359831323849539  1.0000
  C   C27       1.0  0.9146081929973989  0.31340558483052416  0.059513649023567705  1.0000
  S   S1        1.0  0.8317345618368313  0.7406605042312335  0.027962408399897942  1.0000
  C   C28       1.0  0.7329141727918717  0.6999816820602551  0.03292380099305814  1.0000
  H   H14       1.0  0.9116071789151903  0.32885392284159276  0.5048806854846362  1.0000
  H   H15       1.0  0.8666864994267842  0.5606872565073489  0.24892718197262687  1.0000
  H   H16       1.0  0.8666863490161318  0.5606870766131229  0.8335768711963794  1.0000
  H   H17       1.0  0.9341374353858509  0.2126050687541865  0.06695777425700067  1.0000
  H   H18       1.0  0.9116057800733751  0.3288533150770865  0.6118651204853811  1.0000
  H   H19       1.0  0.7195923871501029  0.6428565046871881  0.9494728469350271  1.0000
  H   H20       1.0  0.7195927089129542  0.6428578015237689  0.12570753424976178  1.0000
  H   H21       1.0  0.6981439014332125  0.7912407892582516  0.026497228613491464  1.0000
  Zn  Zn1       1.0  0.8197679859009415  0.38201431297830823  0.5559438291407539  1.0000
  Zn  Zn2       1.0  0.9843990557139155  0.3742112262483548  0.5535250566807703  1.0000
  C   C29       1.0  0.9020854262531558  0.37294088031750894  0.7918549280311031  1.0000
  C   C30       1.0  0.9020834131278778  0.38328621182133604  0.3176140588038012  1.0000
  C   C31       1.0  0.9020832538130414  0.6152331426664523  0.549561223926023  1.0000
  C   C32       1.0  0.9020855293908908  0.14099239230659566  0.5599078329508969  1.0000
  O   O1        1.0  0.9645587953913992  0.3820555217328716  0.36506676388846837  1.0000
  O   O2        1.0  0.9645612166740386  0.3682482287042925  0.7425660568878718  1.0000
  O   O3        1.0  0.9645586201861959  0.5639023346737226  0.5469121889290198  1.0000
  O   O4        1.0  0.9645613357018158  0.18640142771350687  0.5607205353287714  1.0000
  O   O5        1.0  0.8396056497325368  0.5698241141773803  0.5487483513113323  1.0000
  O   O6        1.0  0.8396082462169766  0.37417156803797  0.7444021500467479  1.0000
  O   O7        1.0  0.8396058249843946  0.38797881582199434  0.3669012961390852  1.0000
  O   O8        1.0  0.8396083652917332  0.19232471251678795  0.5625551649165166  1.0000
