data_image0
_chemical_formula_structural       NC8NC6H8C6H6C6FH5Zn2C4O8
_chemical_formula_sum              "N2 C30 H19 F1 Zn2 O8"
_cell_length_a       17.457602349358154
_cell_length_b       10.681118228259551
_cell_length_c       9.275646106892307
_cell_angle_alpha    84.95237390848601
_cell_angle_beta     92.91404810424501
_cell_angle_gamma    91.68806569353352

_space_group_name_H-M_alt    "P 1"
_space_group_IT_number       1

loop_
  _space_group_symop_operation_xyz
  'x, y, z'

loop_
  _atom_site_type_symbol
  _atom_site_label
  _atom_site_symmetry_multiplicity
  _atom_site_fract_x
  _atom_site_fract_y
  _atom_site_fract_z
  _atom_site_occupancy
  N   N1        1.0  0.7221033058115723  0.41504856626981557  0.47351466140476095  1.0000
  C   C1        1.0  0.6610228889819894  0.3708726585892841  0.4617164655340342  1.0000
  C   C2        1.0  0.5850362696469742  0.3159232417198792  0.44705011469472833  1.0000
  C   C3        1.0  0.5265251772603304  0.35388144486136985  0.5302905279417327  1.0000
  C   C4        1.0  0.4519767844624765  0.300968323600902  0.5163070565726806  1.0000
  C   C5        1.0  0.3898758310610868  0.34104414551552154  0.6044618112135254  1.0000
  C   C6        1.0  0.3153161089987053  0.3594256261224962  0.5424868952176951  1.0000
  C   C7        1.0  0.2568050390553476  0.3972053642385156  0.6258472869206171  1.0000
  C   C8        1.0  0.18080664287489623  0.41619381228640684  0.5614101333726016  1.0000
  N   N2        1.0  0.11971684888875161  0.43145437112830476  0.509602829792315  1.0000
  C   C9        1.0  0.2723616475353245  0.4168328565016859  0.7717477551918579  1.0000
  C   C10       1.0  0.3461367563308304  0.39882248865910563  0.8341534432607169  1.0000
  C   C11       1.0  0.4046363285269934  0.36121167307040003  0.751301757720773  1.0000
  C   C12       1.0  0.4372277943820811  0.2094584911468962  0.41749064159921323  1.0000
  C   C13       1.0  0.49572726227512115  0.17176490643067366  0.33469478741458336  1.0000
  C   C14       1.0  0.5694910181856483  0.22478074153553518  0.34928946661234117  1.0000
  H   H1        1.0  0.5388848164290176  0.42570579733872926  0.6043431322030361  1.0000
  H   H2        1.0  0.3029472185406897  0.34603784990264685  0.4290980715987103  1.0000
  H   H3        1.0  0.227514451354954  0.44600834798663724  0.8371372224125087  1.0000
  H   H4        1.0  0.3579918482964852  0.41371612481576303  0.9471274295728109  1.0000
  H   H5        1.0  0.461132739750591  0.3462817913736207  0.8025439326015855  1.0000
  H   H6        1.0  0.3807406470954962  0.16585156173802562  0.4056523058790229  1.0000
  H   H7        1.0  0.4838811522568803  0.1010294466233621  0.25931038293657616  1.0000
  H   H8        1.0  0.6143383779963132  0.19476136516873366  0.2844680576708394  1.0000
  C   C15       1.0  0.9209137556808019  0.05550154437969623  0.4915652894222662  1.0000
  C   C16       1.0  0.9546185852154078  0.9813189340071231  0.6092477434318806  1.0000
  C   C17       1.0  0.9546185734715792  0.8504366959570193  0.6092476763781627  1.0000
  C   C18       1.0  0.9209137428125557  0.7909919472285655  0.49156535064703855  1.0000
  C   C19       1.0  0.8872368142131027  0.865163433050406  0.37398015073660207  1.0000
  C   C20       1.0  0.8872368259169546  0.9960556910904275  0.3739802103777361  1.0000
  H   H9        1.0  0.8868288429479032  0.36166326346683086  0.3725570435829584  1.0000
  H   H10       1.0  0.9810380662162713  0.0243537400898568  0.7014927642748825  1.0000
  H   H11       1.0  0.9810379718819169  0.7958497078375963  0.7014927302177743  1.0000
  H   H12       1.0  0.8608138884754232  0.8221741363779191  0.2817230859818529  1.0000
  H   H13       1.0  0.8608138683621068  0.05059857469045892  0.281723072420327  1.0000
  H   H14       1.0  0.8868291253394017  0.49973392783964715  0.37255667878247123  1.0000
  C   C21       1.0  0.920824452391848  0.42716267663652285  0.06771677203858029  1.0000
  C   C22       1.0  0.9910735558105965  0.4431497733133738  0.14615357025112696  1.0000
  C   C23       1.0  0.060371663932185404  0.44733887671143235  0.07699738289772351  1.0000
  C   C24       1.0  0.060637698490447534  0.43548876164356387  0.9286452731429704  1.0000
  C   C25       1.0  0.9915908508737452  0.42163932718174313  0.8483856351459731  1.0000
  C   C26       1.0  0.921003007162321  0.41933079997453504  0.915413860297642  1.0000
  F   F1        1.0  0.12755970620706614  0.461417360935539  0.1545307142015928  1.0000
  H   H15       1.0  0.742919740310966  0.31808082835271123  0.16472269468810463  1.0000
  H   H16       1.0  0.9924356675056052  0.4494338965782423  0.26220445054861585  1.0000
  H   H17       1.0  0.11443907188204672  0.43823253752549896  0.8752130274232872  1.0000
  H   H18       1.0  0.9933404103073376  0.415725683437143  0.7326115022493189  1.0000
  H   H19       1.0  0.8005613563090872  0.35101436309176903  0.629636583920397  1.0000
  Zn  Zn1       1.0  0.8368459872064263  0.4197794918387536  0.4839372609560617  1.0000
  Zn  Zn2       1.0  0.004974155733740826  0.4267130688033909  0.49919204709557374  1.0000
  C   C27       1.0  0.9209675678761666  0.41582218471518106  0.7551808079704396  1.0000
  C   C28       1.0  0.9208544110481697  0.4306720304360465  0.22794880832770104  1.0000
  C   C29       1.0  0.9209085768506541  0.6520215558080023  0.48581335945934145  1.0000
  C   C30       1.0  0.9209133447195463  0.1944711516831037  0.4973163285842159  1.0000
  O   O1        1.0  0.9846682291958737  0.43447559453860696  0.2875132552825743  1.0000
  O   O2        1.0  0.984759139332184  0.4172801041994154  0.7071939752359415  1.0000
  O   O3        1.0  0.9847106435439579  0.6080140341691338  0.4896777767028191  1.0000
  O   O4        1.0  0.9847166675905455  0.2437416721612471  0.5050293403893085  1.0000
  O   O5        1.0  0.8571034179757278  0.6027508861162414  0.47809996244902475  1.0000
  O   O6        1.0  0.8571519137441954  0.4120184614419884  0.6956160840234289  1.0000
  O   O7        1.0  0.8570610032933341  0.4292139241761064  0.2759336287538836  1.0000
  O   O8        1.0  0.8571094417076658  0.23847999184173196  0.493449822073704  1.0000
