data_image0
_chemical_formula_structural       NC9NC5H8C6FH5C6H6Zn2C4O8
_chemical_formula_sum              "N2 C30 H19 F1 Zn2 O8"
_cell_length_a       17.807436237873137
_cell_length_b       9.275642734913903
_cell_length_c       10.681121600428288
_cell_angle_alpha    85.47816350102677
_cell_angle_beta     89.39214167786866
_cell_angle_gamma    88.99238798493903

_space_group_name_H-M_alt    "P 1"
_space_group_IT_number       1

loop_
  _space_group_symop_operation_xyz
  'x, y, z'

loop_
  _atom_site_type_symbol
  _atom_site_label
  _atom_site_symmetry_multiplicity
  _atom_site_fract_x
  _atom_site_fract_y
  _atom_site_fract_z
  _atom_site_occupancy
  N   N1        1.0  0.7158633810661702  0.5407881375511965  0.6066134359313966  1.0000
  C   C1        1.0  0.655061561377772  0.5017182495535517  0.5960354996341051  1.0000
  C   C2        1.0  0.5794307804168711  0.4531196114857401  0.5828776953396495  1.0000
  C   C3        1.0  0.5609045381785893  0.3738306195834489  0.48173165128783557  1.0000
  C   C4        1.0  0.4874702802376881  0.326521297073604  0.46887675911175797  1.0000
  C   C5        1.0  0.4315112469841394  0.35808180826025504  0.5571371784550234  1.0000
  C   C6        1.0  0.3534702605184811  0.3079317702311464  0.5435547293083143  1.0000
  C   C7        1.0  0.2917917665978661  0.39870270082789205  0.5684458108702586  1.0000
  C   C8        1.0  0.2182139673299388  0.3511679518821902  0.5556044122103811  1.0000
  C   C9        1.0  0.1555017731643872  0.44492699724196916  0.5808424060719393  1.0000
  N   N2        1.0  0.1050941217696624  0.5203027830784688  0.601133061265029  1.0000
  C   C10       1.0  0.2057295461071931  0.2125758460824898  0.5178478703652876  1.0000
  C   C11       1.0  0.2665505858541308  0.12178953580708218  0.49294871934362794  1.0000
  C   C12       1.0  0.3400065506046065  0.16888624058006907  0.505595399760276  1.0000
  C   C13       1.0  0.450731904130098  0.4379196769258804  0.6584938877177533  1.0000
  C   C14       1.0  0.5242178740610158  0.4850176120634737  0.6711989716081879  1.0000
  H   H1        1.0  0.6031625801352659  0.3488665373057753  0.41261394659629613  1.0000
  H   H2        1.0  0.4742308744231871  0.2669202653023859  0.3889979794401295  1.0000
  H   H3        1.0  0.3008827496192926  0.5069144515569521  0.5961467544042915  1.0000
  H   H4        1.0  0.1490572572197927  0.17478685118231296  0.5076819364791074  1.0000
  H   H5        1.0  0.2567662532312939  0.01448832203614736  0.4640890289761024  1.0000
  H   H6        1.0  0.3862470258352753  0.09589189710782131  0.4873249527510346  1.0000
  H   H7        1.0  0.4091874588923633  0.46228526204987963  0.7288606485468601  1.0000
  H   H8        1.0  0.5379930632309634  0.54597382587889  0.75007152291432  1.0000
  C   C15       1.0  0.9081598089910048  0.10712355651845518  0.6044443875824803  1.0000
  C   C16       1.0  0.893622412747895  0.19120151023508658  0.4915176135672328  1.0000
  C   C17       1.0  0.8861696372982708  0.1263167208698599  0.3788773978318427  1.0000
  C   C18       1.0  0.8931980817532146  0.9766560495990797  0.37717216318935676  1.0000
  C   C19       1.0  0.9063780397395372  0.8910600498895848  0.48836622730742496  1.0000
  C   C20       1.0  0.9128048233193905  0.953955920306904  0.6033128772991836  1.0000
  F   F1        1.0  0.8729865175061785  0.20911000788828482  0.270741323293354  1.0000
  H   H9        1.0  0.9857701416173015  0.1821847345041605  0.8830720117325841  1.0000
  H   H10       1.0  0.889787612848693  0.30802871568794576  0.48996889809272304  1.0000
  H   H11       1.0  0.8877143036054929  0.9264833131984718  0.28966655839099076  1.0000
  H   H12       1.0  0.9097697815105166  0.7747216162817464  0.48487672705417073  1.0000
  H   H13       1.0  0.9620570683493067  0.6539395305724105  0.7925373710630708  1.0000
  C   C21       1.0  0.910482324027678  0.5305397209524518  0.23613341277641298  1.0000
  C   C22       1.0  0.8562853597815246  0.45317655746899144  0.1755749645590452  1.0000
  C   C23       1.0  0.8562853133968397  0.4531766523919263  0.04469282514284956  1.0000
  C   C24       1.0  0.9104822653729095  0.5305397947409709  0.9716238491896276  1.0000
  C   C25       1.0  0.9646344955467362  0.6078388379104869  0.032182430570552256  1.0000
  C   C26       1.0  0.9646344858150048  0.6078388160577586  0.16307472939876688  1.0000
  H   H14       1.0  0.9652898258211385  0.6087751636470029  0.5285173812524455  1.0000
  H   H15       1.0  0.8138032206186376  0.39253565343248686  0.22928907453881453  1.0000
  H   H16       1.0  0.8138032053052926  0.3925357221300576  0.0007850454434474852  1.0000
  H   H17       1.0  0.007122182749342176  0.6684877354890792  0.9785125674152284  1.0000
  H   H18       1.0  0.007122144631228178  0.6684876869344654  0.20693693549996506  1.0000
  H   H19       1.0  0.9652900574711292  0.6087746489510644  0.6665883529098342  1.0000
  Zn  Zn1       1.0  0.8281869426896441  0.5348726593623001  0.6050391658094121  1.0000
  Zn  Zn2       1.0  0.9927704774789572  0.5262065077769857  0.6027176423015013  1.0000
  C   C27       1.0  0.9104491131036248  0.5247956716482118  0.8326081223503354  1.0000
  C   C28       1.0  0.9105101142912131  0.5362852201639654  0.37514878089170156  1.0000
  C   C29       1.0  0.9119229371908665  0.7938867849898739  0.5985365264511349  1.0000
  C   C30       1.0  0.9090362245409007  0.26719237742533597  0.609220446662968  1.0000
  O   O1        1.0  0.9729780001715161  0.534918412330786  0.420922610684761  1.0000
  O   O2        1.0  0.9728963159581698  0.5195839831946114  0.7850719508934816  1.0000
  O   O3        1.0  0.97408560557589  0.7368785046737258  0.596057490982828  1.0000
  O   O4        1.0  0.9717886544491657  0.3176239041234732  0.6099369774776704  1.0000
  O   O5        1.0  0.8491687095551612  0.7434552659747142  0.5978198314188761  1.0000
  O   O6        1.0  0.8479794294362375  0.5261624768514681  0.7868342222430971  1.0000
  O   O7        1.0  0.8480611134239949  0.5414968557386772  0.42268337647822296  1.0000
  O   O8        1.0  0.8468717676420003  0.32420233721846436  0.6116978371745097  1.0000
