data_image0
_chemical_formula_structural       NC8NC6H8C6BrH5C6FH5Zn2C4O8
_chemical_formula_sum              "N2 C30 H18 Br1 F1 Zn2 O8"
_cell_length_a       17.457602349358154
_cell_length_b       10.302969083221269
_cell_length_c       9.275646106892307
_cell_angle_alpha    84.95236398800574
_cell_angle_beta     92.91404810424501
_cell_angle_gamma    91.68807063265206

_space_group_name_H-M_alt    "P 1"
_space_group_IT_number       1

loop_
  _space_group_symop_operation_xyz
  'x, y, z'

loop_
  _atom_site_type_symbol
  _atom_site_label
  _atom_site_symmetry_multiplicity
  _atom_site_fract_x
  _atom_site_fract_y
  _atom_site_fract_z
  _atom_site_occupancy
  N   N1        1.0  0.7221033733687545  0.46698501896075006  0.4735143843555809  1.0000
  C   C1        1.0  0.6610229544301275  0.4211877252769263  0.46171619713395606  1.0000
  C   C2        1.0  0.5850363324717198  0.3642215028662421  0.447049857053073  1.0000
  C   C3        1.0  0.5265252418972749  0.40357288393016133  0.5302902628683257  1.0000
  C   C4        1.0  0.4519768465732452  0.3487176951784561  0.5163068018590149  1.0000
  C   C5        1.0  0.38987589508515347  0.3902644178653407  0.6044615486535048  1.0000
  C   C6        1.0  0.31531617390033984  0.40932055298290226  0.5424866290588055  1.0000
  C   C7        1.0  0.2568051057606606  0.44848691882895886  0.6258470133649172  1.0000
  C   C8        1.0  0.1808067104867548  0.4681722988813206  0.5614098560991962  1.0000
  N   N2        1.0  0.11971691722917911  0.48399296520731605  0.5096025495310794  1.0000
  C   C9        1.0  0.2723617151776923  0.4688347979026364  0.7717474777933355  1.0000
  C   C10       1.0  0.346136823113348  0.4501633964816334  0.8341531693884039  1.0000
  C   C11       1.0  0.4046363935138972  0.41117215311747746  0.7513014912121974  1.0000
  C   C12       1.0  0.4372278521239917  0.25384918218351915  0.417490404802052  1.0000
  C   C13       1.0  0.49572731821746635  0.2147721318209368  0.3346945579973646  1.0000
  C   C14       1.0  0.569491076659073  0.26973380431783345  0.3492892268152712  1.0000
  H   H1        1.0  0.5388848844949969  0.4780334018179637  0.6043428530673003  1.0000
  H   H2        1.0  0.3029472828031656  0.3954414059204876  0.4290978080609833  1.0000
  H   H3        1.0  0.22751452039021672  0.4990811159085724  0.8371369393017827  1.0000
  H   H4        1.0  0.3579919157900541  0.4656036729784776  0.9471271527845067  1.0000
  H   H5        1.0  0.4611328040247131  0.3956943007623692  0.8025436690160974  1.0000
  H   H6        1.0  0.38074070275552674  0.20864174995077  0.4056520776195649  1.0000
  H   H7        1.0  0.48388120482217645  0.14144047217326294  0.2593101673684941  1.0000
  H   H8        1.0  0.614338435036554  0.23861262836785913  0.2844678237511953  1.0000
  C   C15       1.0  0.920913806072507  0.0942415617413559  0.49156508276799005  1.0000
  C   C16       1.0  0.0004619102027740851  0.09449722976203745  0.5231092914171735  1.0000
  C   C17       1.0  0.03992205142633787  0.9776862060024564  0.5387567295667741  1.0000
  C   C18       1.0  0.0004619703850647916  0.8594148753639407  0.5231090230123507  1.0000
  C   C19       1.0  0.9209138178483368  0.856726580520045  0.49156498814925453  1.0000
  C   C20       1.0  0.8815239016802713  0.9747552122979681  0.4759452746089452  1.0000
  Br  Br1       1.0  0.14812116638987516  0.9796883100311036  0.5816626742704762  1.0000
  H   H9        1.0  0.8909726680660586  0.4214470034523474  0.479691493547316  1.0000
  H   H10       1.0  0.03212850631162212  0.18508249820589473  0.5356666032710482  1.0000
  H   H11       1.0  0.03212859645446575  0.7700015741581638  0.5356659612995192  1.0000
  H   H12       1.0  0.8201733445130628  0.9736199347363705  0.4516173606768197  1.0000
  H   H13       1.0  0.8909724487932662  0.5284129814040822  0.47969360642158376  1.0000
  C   C21       1.0  0.9208245205273816  0.4795437528795745  0.06771649261760548  1.0000
  C   C22       1.0  0.9910736247093852  0.49611762312025554  0.14615328770007485  1.0000
  C   C23       1.0  0.0603717330309701  0.5004604789587865  0.07699709952649614  1.0000
  C   C24       1.0  0.06063776702348456  0.4881754297442924  0.9286449920918507  1.0000
  C   C25       1.0  0.9915909187455835  0.47381768022186654  0.8483853568064035  1.0000
  C   C26       1.0  0.9210030749239452  0.47142442326266165  0.9154135824100531  1.0000
  F   F1        1.0  0.12755977597798518  0.5150556850448098  0.15453042807397033  1.0000
  H   H14       1.0  0.742919803238719  0.3664582792871518  0.16472243662402009  1.0000
  H   H15       1.0  0.9924357367044104  0.5026323922289699  0.26220416676720903  1.0000
  H   H16       1.0  0.11443914054607718  0.4910199102873134  0.8752127458349688  1.0000
  H   H17       1.0  0.9933404778968467  0.4676869883236596  0.732611225067568  1.0000
  H   H18       1.0  0.8005614208091513  0.4006005718100001  0.6296363194083292  1.0000
  Zn  Zn1       1.0  0.8368460549894723  0.4718895834406436  0.48393698298062393  1.0000
  Zn  Zn2       1.0  0.004974223847809434  0.4790776431139214  0.49919176776262675  1.0000
  C   C27       1.0  0.920967635470283  0.46778703148300216  0.7551805307697943  1.0000
  C   C28       1.0  0.9208544793512468  0.4831819103060053  0.22794852821963785  1.0000
  C   C29       1.0  0.9209086557213898  0.7126556156013018  0.4858130360137516  1.0000
  C   C30       1.0  0.9209134017459322  0.23831176319201397  0.49731609472139215  1.0000
  O   O1        1.0  0.9846682976805401  0.4871250764206647  0.28751297442982016  1.0000
  O   O2        1.0  0.9847592069959039  0.4692984609089623  0.7071936977498532  1.0000
  O   O3        1.0  0.9847107203136884  0.6670328882231222  0.4896774618733637  1.0000
  O   O4        1.0  0.9847167269692019  0.28939065697752486  0.50502909687992  1.0000
  O   O5        1.0  0.8571034944941852  0.661576567125594  0.47809964865002885  1.0000
  O   O6        1.0  0.8571519811567145  0.4638437003556788  0.6956158075675063  1.0000
  O   O7        1.0  0.8570610715267981  0.48167028724912053  0.2759333489312996  1.0000
  O   O8        1.0  0.8571095008351195  0.28393585748351424  0.49344957959448865  1.0000
