data_image0
_chemical_formula_structural       NC8NC6H8C9H8C7OH6Zn2C4O8
_chemical_formula_sum              "N2 C34 H22 O9 Zn2"
_cell_length_a       17.457602349358154
_cell_length_b       9.275152443626249
_cell_length_c       9.274081674992354
_cell_angle_alpha    85.87685954028238
_cell_angle_beta     92.53340075860572
_cell_angle_gamma    92.27213218982278

_space_group_name_H-M_alt    "P 1"
_space_group_IT_number       1

loop_
  _space_group_symop_operation_xyz
  'x, y, z'

loop_
  _atom_site_type_symbol
  _atom_site_label
  _atom_site_symmetry_multiplicity
  _atom_site_fract_x
  _atom_site_fract_y
  _atom_site_fract_z
  _atom_site_occupancy
  N   N1        1.0  0.7356536478801029  0.6008123306505773  0.47126106242531796  1.0000
  C   C1        1.0  0.6743381226034694  0.5496826037528637  0.4596343022471503  1.0000
  C   C2        1.0  0.5980590282147943  0.48608366560253846  0.44518118083303193  1.0000
  C   C3        1.0  0.5395188947848302  0.5314365384084077  0.5281499991511962  1.0000
  C   C4        1.0  0.46468842482807293  0.4701971333173445  0.5143716184575029  1.0000
  C   C5        1.0  0.4025559552245547  0.518085413083915  0.6022391664651281  1.0000
  C   C6        1.0  0.3283054638569723  0.5380615292694071  0.5403066321803891  1.0000
  C   C7        1.0  0.2697638731920372  0.5832110999615197  0.623395836510213  1.0000
  C   C8        1.0  0.1940862328849413  0.6038387651507275  0.5590031710624948  1.0000
  N   N2        1.0  0.1332542881470877  0.6204163211302627  0.5072316567151021  1.0000
  C   C9        1.0  0.2849803574523496  0.6086596595643534  0.7689809893040436  1.0000
  C   C10       1.0  0.35844716236987856  0.5891195142591328  0.8313422915844992  1.0000
  C   C11       1.0  0.4169766890216928  0.5441744590703508  0.7487603496780808  1.0000
  C   C12       1.0  0.4496874949961988  0.36283822449453806  0.4160367846516184  1.0000
  C   C13       1.0  0.5082162305024795  0.31779888478524  0.3335108627996286  1.0000
  C   C14       1.0  0.582260765067007  0.37916850852535  0.3478990601859262  1.0000
  H   H1        1.0  0.5520873599966358  0.6156324398250328  0.6018305811748574  1.0000
  H   H2        1.0  0.316212412666219  0.5204338783642739  0.4271564666018308  1.0000
  H   H3        1.0  0.2401063859315961  0.6435462166082087  0.834159307091694  1.0000
  H   H4        1.0  0.37003701175514303  0.6084741999153436  0.9440731650639151  1.0000
  H   H5        1.0  0.4732190762522014  0.5279669434958922  0.7999665630283228  1.0000
  H   H6        1.0  0.3929688745919298  0.31236330950600966  0.40436800316510246  1.0000
  H   H7        1.0  0.49617221827952085  0.23483177110558096  0.2584970135893223  1.0000
  H   H8        1.0  0.6271279011397846  0.3433206368204642  0.2832907265909328  1.0000
  C   C15       1.0  0.9321899903780789  0.1868835374813138  0.4905130521345613  1.0000
  C   C16       1.0  0.9048824646936332  0.2671824976116042  0.3655923566432606  1.0000
  C   C17       1.0  0.8847133375371538  0.19963219249274444  0.23902489269487925  1.0000
  C   C18       1.0  0.8915365822076686  0.05058412809568891  0.23487974230546516  1.0000
  C   C19       1.0  0.9173469702978357  0.9685139578626116  0.3586301301362085  1.0000
  C   C20       1.0  0.9367251863230297  0.034334484045873914  0.48799278868442086  1.0000
  C   C21       1.0  0.8711398114004445  0.9812748006395389  0.10385546966691095  1.0000
  C   C22       1.0  0.8540623120069591  0.9232110157935018  0.994143329066504  1.0000
  C   C23       1.0  0.8333421493717194  0.8527488997869147  0.8610269228740961  1.0000
  H   H9        1.0  0.041563670268289554  0.27649955439464957  0.7882634588143682  1.0000
  H   H10       1.0  0.9008424417071169  0.3834967368910718  0.36477347723380826  1.0000
  H   H11       1.0  0.8644821522749248  0.2640404196030124  0.14384511868565064  1.0000
  H   H12       1.0  0.9205892598284593  0.8523278671066266  0.35490260938231755  1.0000
  H   H13       1.0  0.007894525947911513  0.7443031795160947  0.6913148903958715  1.0000
  H   H14       1.0  0.8473268898989081  0.7368369029582098  0.8757574707619611  1.0000
  H   H15       1.0  0.770958021295064  0.8620792798390617  0.8356510380320983  1.0000
  H   H16       1.0  0.8660226359512473  0.9058752107718006  0.7706866541457118  1.0000
  C   C24       1.0  0.9357321108828449  0.6068902826204357  0.06611159516839127  1.0000
  C   C25       1.0  0.9983764244669391  0.6727607190632998  0.14008789021427415  1.0000
  C   C26       1.0  0.05673305965652453  0.7490619311870061  0.06463044268333396  1.0000
  C   C27       1.0  0.05243191350347298  0.7598832545394756  0.9130804559140739  1.0000
  C   C28       1.0  0.9913908642567238  0.6932693455997312  0.8380492246182474  1.0000
  C   C29       1.0  0.933183063980808  0.6143276927370895  0.912394238879259  1.0000
  C   C30       1.0  0.12118162800293963  0.8178929964740589  0.14567888429321152  1.0000
  O   O1        1.0  0.1743400521361671  0.8877232434723996  0.08091588147889928  1.0000
  H   H17       1.0  0.7534540106086854  0.5041943244230391  0.16131397521906865  1.0000
  H   H18       1.0  0.0008827544463672066  0.6675295386323665  0.25737249459564593  1.0000
  H   H19       1.0  0.0966626358334759  0.8187206307807109  0.8522781359787062  1.0000
  H   H20       1.0  0.9907191504996212  0.700689577723848  0.7208889152024667  1.0000
  H   H21       1.0  0.8116410430275622  0.5393166864211396  0.6265528147209913  1.0000
  H   H22       1.0  0.12336915767610401  0.8088299884035526  0.2628156990480732  1.0000
  Zn  Zn1       1.0  0.8503925582789943  0.606465822393055  0.4816497302346283  1.0000
  Zn  Zn2       1.0  0.01851526465254838  0.6147511024957262  0.4968548212272419  1.0000
  C   C31       1.0  0.9336324094056311  0.6071734220391305  0.7524456722743396  1.0000
  C   C32       1.0  0.9352772587379011  0.6140454152034189  0.22605918124049285  1.0000
  C   C33       1.0  0.9358812790103992  0.8740975302529312  0.48272682069159956  1.0000
  C   C34       1.0  0.933028322255631  0.3471195712181059  0.4957781096129308  1.0000
  O   O2        1.0  0.9989262634042755  0.6195846685946287  0.2855093237761417  1.0000
  O   O3        1.0  0.9975846442061028  0.607921412343039  0.7045354304229954  1.0000
  O   O4        1.0  0.9993997702625403  0.8234659762236674  0.48673546721552974  1.0000
  O   O5        1.0  0.9971110803596103  0.4040401112594698  0.5033091737240487  1.0000
  O   O6        1.0  0.8717966851999348  0.8171768108034554  0.4751953725414866  1.0000
  O   O7        1.0  0.869981568649002  0.6016339798684835  0.6929952537629185  1.0000
  O   O8        1.0  0.8713231928472711  0.6132971706144879  0.27396741484484566  1.0000
  O   O9        1.0  0.8695080094188362  0.3977526039080037  0.49176737285597616  1.0000
