data_image0
_chemical_formula_structural       NC8NC6H8C6NH7C6FH5Zn2C4O8
_chemical_formula_sum              "N3 C30 H20 F1 Zn2 O8"
_cell_length_a       17.457602349358154
_cell_length_b       9.274771166103582
_cell_length_c       9.275646106892307
_cell_angle_alpha    84.84724178978938
_cell_angle_beta     92.91404810424501
_cell_angle_gamma    92.29117059398062

_space_group_name_H-M_alt    "P 1"
_space_group_IT_number       1

loop_
  _space_group_symop_operation_xyz
  'x, y, z'

loop_
  _atom_site_type_symbol
  _atom_site_label
  _atom_site_symmetry_multiplicity
  _atom_site_fract_x
  _atom_site_fract_y
  _atom_site_fract_z
  _atom_site_occupancy
  N   N1        1.0  0.7311688107849015  0.6304008092091586  0.4713333809700089  1.0000
  C   C1        1.0  0.6698053811172258  0.5795018949621729  0.4596032817324349  1.0000
  C   C2        1.0  0.593466728485414  0.5161898816044865  0.44502163476179923  1.0000
  C   C3        1.0  0.5351988152288443  0.559924836427381  0.5282035358928061  1.0000
  C   C4        1.0  0.4603114346567365  0.4989590167535993  0.5143016294671054  1.0000
  C   C5        1.0  0.39846722690460373  0.5451338647671613  0.6023946077079503  1.0000
  C   C6        1.0  0.3240252657501034  0.5663127709689997  0.5403913568796874  1.0000
  C   C7        1.0  0.26575623160109635  0.6098421006784669  0.6236935115683138  1.0000
  C   C8        1.0  0.1898794848638635  0.6317203469810078  0.5592270875548169  1.0000
  N   N2        1.0  0.1288874576083985  0.6493033671528186  0.5073962600056585  1.0000
  C   C9        1.0  0.2814385835594011  0.6324566455297269  0.7695637242950617  1.0000
  C   C10       1.0  0.3550983089799895  0.6117053306952798  0.8319971751304673  1.0000
  C   C11       1.0  0.4133569275835354  0.5683706313552506  0.749203466212764  1.0000
  C   C12       1.0  0.4449761870718321  0.39352256146860287  0.4156262758055089  1.0000
  C   C13       1.0  0.503234171112054  0.3500924966014125  0.3328885258307397  1.0000
  C   C14       1.0  0.5773375728328132  0.411176661849338  0.347401481752984  1.0000
  H   H1        1.0  0.5480185969255764  0.642679934161378  0.6021454237740982  1.0000
  H   H2        1.0  0.3115706065384238  0.5508875469147523  0.42702317035756887  1.0000
  H   H3        1.0  0.23677830008963344  0.6660722726255037  0.8349082178446543  1.0000
  H   H4        1.0  0.3670488169870916  0.6288655872551605  0.9449482030806184  1.0000
  H   H5        1.0  0.4697576905587267  0.5511686131489124  0.8004686553275853  1.0000
  H   H6        1.0  0.3882096721049774  0.34327921668873707  0.40385515964527396  1.0000
  H   H7        1.0  0.4909348945538375  0.2685920070361425  0.2576131592177209  1.0000
  H   H8        1.0  0.621992613586566  0.37658872141602373  0.2826263473209889  1.0000
  C   C15       1.0  0.9276758235900007  0.21613534199365514  0.4899382464200073  1.0000
  C   C16       1.0  0.9099967562724758  0.29997877066111966  0.35926243567194804  1.0000
  C   C17       1.0  0.8994827803707846  0.2358133235463551  0.22841740410921796  1.0000
  C   C18       1.0  0.9066879623028234  0.08643890199557847  0.2273110008760324  1.0000
  C   C19       1.0  0.9229476504039538  0.001227473189899797  0.3560850278197092  1.0000
  C   C20       1.0  0.9323877300661788  0.06355795258922936  0.4888045880139804  1.0000
  N   N3        1.0  0.882275003484906  0.32279376053396613  0.09636574274838705  1.0000
  H   H9        1.0  0.014091543984185773  0.29653792605650864  0.8136547200349724  1.0000
  H   H10       1.0  0.9061271886954121  0.41639347422983763  0.3583571344643406  1.0000
  H   H11       1.0  0.8989617404291841  0.035649043855675355  0.12667188497850002  1.0000
  H   H12       1.0  0.9263290978626237  0.8852682022886114  0.3522579584339014  1.0000
  H   H13       1.0  0.9874820536603567  0.7668208434305914  0.7087110065246391  1.0000
  H   H14       1.0  0.8769874891505907  0.4346168593706017  0.09583942117890976  1.0000
  H   H15       1.0  0.8746213881021884  0.2759992760762995  0.9981068697680517  1.0000
  C   C21       1.0  0.9299675663818532  0.6443585318029446  0.0655168178476353  1.0000
  C   C22       1.0  0.00031909109403827074  0.6627786595499048  0.14392897214193057  1.0000
  C   C23       1.0  0.06964403669569275  0.6676052907573833  0.07476632733575905  1.0000
  C   C24       1.0  0.0698341535224769  0.6539517401610215  0.9264324843916043  1.0000
  C   C25       1.0  0.0006985795397798089  0.6379945994014184  0.8461941951321292  1.0000
  C   C26       1.0  0.9300959462547841  0.6353347439615193  0.9132259788508685  1.0000
  F   F1        1.0  0.13692227274327706  0.6838263397153914  0.1522779568246364  1.0000
  H   H16       1.0  0.7513640217225789  0.5186758252504924  0.16269088886119443  1.0000
  H   H17       1.0  0.0017214620084609056  0.6700191457780347  0.259970165538592  1.0000
  H   H18       1.0  0.12365310490715475  0.6571130835416148  0.8729960091742259  1.0000
  H   H19       1.0  0.0024102532300447344  0.6311809749249191  0.7304291780465544  1.0000
  H   H20       1.0  0.8092166263256728  0.5566214215844909  0.6275540114437157  1.0000
  Zn  Zn1       1.0  0.845941800842155  0.6358517209727299  0.48174868785614744  1.0000
  Zn  Zn2       1.0  0.014114389312328113  0.6438404994241  0.49699278596972496  1.0000
  C   C27       1.0  0.9300380290340616  0.631292162459788  0.7529983350121099  1.0000
  C   C28       1.0  0.9300200077041986  0.6484019642411876  0.22574344450986206  1.0000
  C   C29       1.0  0.9314922486674482  0.9034380484342779  0.48326678799644673  1.0000
  C   C30       1.0  0.9285657210578556  0.3762543411600425  0.49547506559498156  1.0000
  O   O1        1.0  0.9938581933754703  0.6527843820171655  0.28530202831617824  1.0000
  O   O2        1.0  0.9938389406474771  0.6329719585908304  0.70500925491217  1.0000
  O   O3        1.0  0.9950123812873986  0.8527331464248435  0.4871990423080088  1.0000
  O   O4        1.0  0.9926846953906349  0.43302320293097063  0.5031121274822474  1.0000
  O   O5        1.0  0.8673714373748048  0.8466690147413327  0.4756293411339678  1.0000
  O   O6        1.0  0.8661980063587965  0.6269095612894489  0.6934394744590158  1.0000
  O   O7        1.0  0.8662172585953867  0.6467219529095722  0.2737305125893983  1.0000
  O   O8        1.0  0.8650437605664217  0.42696076235103275  0.4915407199839028  1.0000
