data_image0
_chemical_formula_structural       NC9NC5H8C6NH7C7NH5Zn2C4O8
_chemical_formula_sum              "N4 C31 H20 Zn2 O8"
_cell_length_a       17.807436237873137
_cell_length_b       9.274771166103582
_cell_length_c       10.302823150593486
_cell_angle_alpha    85.45577553533455
_cell_angle_beta     89.3921433004221
_cell_angle_gamma    88.98784114054227

_space_group_name_H-M_alt    "P 1"
_space_group_IT_number       1

loop_
  _space_group_symop_operation_xyz
  'x, y, z'

loop_
  _atom_site_type_symbol
  _atom_site_label
  _atom_site_symmetry_multiplicity
  _atom_site_fract_x
  _atom_site_fract_y
  _atom_site_fract_z
  _atom_site_occupancy
  N   N1        1.0  0.715802549199143  0.5409827738162256  0.5549085030085772  1.0000
  C   C1        1.0  0.6550022712068909  0.501907955260269  0.5439559263021652  1.0000
  C   C2        1.0  0.5793734079462152  0.4533031841209003  0.5303321099925375  1.0000
  C   C3        1.0  0.5608502930209796  0.3740041944884338  0.42550011490430006  1.0000
  C   C4        1.0  0.4874179019031386  0.3266889016215  0.4121898789509144  1.0000
  C   C5        1.0  0.4314576247010516  0.35825338727539147  0.5036799247376764  1.0000
  C   C6        1.0  0.3534186171537134  0.3080970203909825  0.48961641786311416  1.0000
  C   C7        1.0  0.2917365414216233  0.39887940610285  0.5153894809884023  1.0000
  C   C8        1.0  0.2181606178734091  0.3513386583437268  0.5020933133965397  1.0000
  C   C9        1.0  0.1554447239772214  0.44510953596281033  0.5282249743694345  1.0000
  N   N2        1.0  0.1050340982550465  0.5204948341170761  0.5492341148004083  1.0000
  C   C10       1.0  0.2056816654851776  0.2127290624632907  0.4629992384368129  1.0000
  C   C11       1.0  0.266506287650402  0.12193129513228218  0.43721781497425183  1.0000
  C   C12       1.0  0.3399603939650059  0.169033943446246  0.4503122689397716  1.0000
  C   C13       1.0  0.45067513287642164  0.4381013229320203  0.6087301269266463  1.0000
  C   C14       1.0  0.5241592443239578  0.48520520175972703  0.6218851283883509  1.0000
  H   H1        1.0  0.6031093189422903  0.3490369683692369  0.35385334182676065  1.0000
  H   H2        1.0  0.4741808468010711  0.2670803550264078  0.3293991048070952  1.0000
  H   H3        1.0  0.3008232543832905  0.5071048131530151  0.5440694361112157  1.0000
  H   H4        1.0  0.1490108677511035  0.17493529864460577  0.4524733409173032  1.0000
  H   H5        1.0  0.256726189132402  0.0146165400969962  0.4073362455374563  1.0000
  H   H6        1.0  0.3862037495761464  0.09603038804523267  0.43139667589080655  1.0000
  H   H7        1.0  0.4091297273160016  0.4624699762191058  0.6816720296998151  1.0000
  H   H8        1.0  0.5379320292814486  0.546169101565886  0.703632250255426  1.0000
  C   C15       1.0  0.9081160915745075  0.10726345282463368  0.5528125404464739  1.0000
  C   C16       1.0  0.8908334237673095  0.19148191242153456  0.43696471623000344  1.0000
  C   C17       1.0  0.8805630696060951  0.1269731291915901  0.3202780614272198  1.0000
  C   C18       1.0  0.8876147577541578  0.9768663408426524  0.31859240001485967  1.0000
  C   C19       1.0  0.9035085980293008  0.8914015566401904  0.43286559953491865  1.0000
  C   C20       1.0  0.9127276799422805  0.9542027524181116  0.5513412892385186  1.0000
  N   N3        1.0  0.8637418454814842  0.21426679789420744  0.2031475063129442  1.0000
  H   H9        1.0  0.9926409111191004  0.1824746433000195  0.8357121814292532  1.0000
  H   H10       1.0  0.8870465128834979  0.3082739513677626  0.4365212177375901  1.0000
  H   H11       1.0  0.880068227272702  0.9257763463685938  0.22880860951840298  1.0000
  H   H12       1.0  0.9068185001255329  0.7750633188039774  0.4290991394672956  1.0000
  H   H13       1.0  0.9666144553355399  0.6543000063346993  0.7438659847037818  1.0000
  H   H14       1.0  0.8585671708052212  0.3266130774082141  0.20318077660485434  1.0000
  H   H15       1.0  0.8562660201628958  0.16719028938491642  0.11549776991061012  1.0000
  C   C21       1.0  0.9104218899761857  0.5307331027204276  0.17082882295737623  1.0000
  C   C22       1.0  0.8317752489003707  0.5453279499899735  0.17012857559845518  1.0000
  C   C23       1.0  0.7926478029830916  0.5525889057026749  0.052677688393421906  1.0000
  C   C24       1.0  0.8317752337834635  0.5453278565947755  0.9348275821263918  1.0000
  C   C25       1.0  0.9104218894869455  0.5307330952522378  0.9333249895918554  1.0000
  C   C26       1.0  0.9493342891597643  0.5235118949078532  0.051878390924606776  1.0000
  C   C27       1.0  0.7120234911193053  0.5675505286947717  0.053088927803750074  1.0000
  N   N4        1.0  0.6472278885078028  0.5795749614216041  0.05341939493295045  1.0000
  H   H16       1.0  0.9402116044400952  0.5252052380122081  0.49841628789208636  1.0000
  H   H17       1.0  0.8007580148292929  0.5510839705970001  0.2607110453896053  1.0000
  H   H18       1.0  0.8007580440382112  0.5510838628514942  0.8445615086420695  1.0000
  H   H19       1.0  0.009983746006962058  0.512256898983225  0.051569053435222445  1.0000
  H   H20       1.0  0.9402115780159913  0.5252050078450512  0.6054335883534687  1.0000
  Zn  Zn1       1.0  0.8281263442476278  0.5350665491004165  0.5532785122422204  1.0000
  Zn  Zn2       1.0  0.9927102210033639  0.5263993038578081  0.5508747992162402  1.0000
  C   C28       1.0  0.9103889164243427  0.5249882653623987  0.7892068828139309  1.0000
  C   C29       1.0  0.9104494559848236  0.5364793124864076  0.31494652666127454  1.0000
  C   C30       1.0  0.9118521166896598  0.7941133699961345  0.5464458892385322  1.0000
  C   C31       1.0  0.9089861901246872  0.2673524782374004  0.5577075932833604  1.0000
  O   O1        1.0  0.972917396625863  0.5351123272905234  0.3624015589185219  1.0000
  O   O2        1.0  0.9728363241056751  0.5197759240736557  0.7399271161503709  1.0000
  O   O3        1.0  0.9740170348511089  0.7370978939564559  0.5438959059561601  1.0000
  O   O4        1.0  0.971736629775274  0.3177903706812104  0.5584326725712214  1.0000
  O   O5        1.0  0.8490998793113268  0.7436754852362895  0.5457206397006764  1.0000
  O   O6        1.0  0.8479191779963215  0.5263552479280351  0.7417517776616378  1.0000
  O   O7        1.0  0.8480002502928764  0.5416916008897534  0.36422465961039996  1.0000
  O   O8        1.0  0.8468194833830517  0.32436963396622875  0.5602558706180483  1.0000
