data_image0
_chemical_formula_structural       NC9NC5H8C7F3H5C6SCH8Zn2C4O8
_chemical_formula_sum              "N2 C32 H21 F3 S1 Zn2 O8"
_cell_length_a       17.807436237873137
_cell_length_b       9.27228830945605
_cell_length_c       10.302812801239593
_cell_angle_alpha    85.26210475024874
_cell_angle_beta     89.39214003622364
_cell_angle_gamma    87.81380667828488

_space_group_name_H-M_alt    "P 1"
_space_group_IT_number       1

loop_
  _space_group_symop_operation_xyz
  'x, y, z'

loop_
  _atom_site_type_symbol
  _atom_site_label
  _atom_site_symmetry_multiplicity
  _atom_site_fract_x
  _atom_site_fract_y
  _atom_site_fract_z
  _atom_site_occupancy
  N   N1        1.0  0.6993653283934831  0.542678094386043  0.5504393755251689  1.0000
  C   C1        1.0  0.6389818518684603  0.5035602860228987  0.5396000750940073  1.0000
  C   C2        1.0  0.5638714437324382  0.4549020402976742  0.5261171619961373  1.0000
  C   C3        1.0  0.546194194373185  0.37551580405472773  0.42151496853986203  1.0000
  C   C4        1.0  0.47326650383440944  0.328148455274321  0.40834189760631023  1.0000
  C   C5        1.0  0.4169695332642234  0.3597476704150442  0.4997405221425759  1.0000
  C   C6        1.0  0.339465531331426  0.30953612189123314  0.4858224164865641  1.0000
  C   C7        1.0  0.2768151022354496  0.4004183856776966  0.5113323055760386  1.0000
  C   C8        1.0  0.203746284135525  0.3528253339637333  0.49817395666586006  1.0000
  C   C9        1.0  0.1400301593842749  0.44669937755821176  0.5240337796086323  1.0000
  N   N2        1.0  0.0888154172546401  0.522167614019285  0.5448243810713465  1.0000
  C   C10       1.0  0.1927458461815882  0.21406324089184792  0.4594817049218638  1.0000
  C   C11       1.0  0.2545389857827782  0.12316557856338517  0.43396350008173123  1.0000
  C   C12       1.0  0.3274906597506381  0.17032004883625884  0.4469214053185089  1.0000
  C   C13       1.0  0.4353353203993929  0.43968345663017594  0.6045593313923963  1.0000
  C   C14       1.0  0.5083169863725783  0.4868391587724068  0.6175777806185276  1.0000
  H   H1        1.0  0.588719541716071  0.35052110724347285  0.34994050957772593  1.0000
  H   H2        1.0  0.4606652806370024  0.2684743258364173  0.32572385988817  1.0000
  H   H3        1.0  0.2847474014865221  0.508762861417263  0.5396985180809368  1.0000
  H   H4        1.0  0.1364781852170569  0.17622789667432848  0.4490653700209528  1.0000
  H   H5        1.0  0.2459035873234565  0.015732756686990923  0.4043930318594169  1.0000
  H   H6        1.0  0.374512726257964  0.0972361755459703  0.4282174480946117  1.0000
  H   H7        1.0  0.3935299781973196  0.4640789221082646  0.6774306567550699  1.0000
  H   H8        1.0  0.521439482254224  0.5478701325274227  0.6991482355196119  1.0000
  C   C15       1.0  0.8963052439528774  0.10848160241610061  0.5496008670717938  1.0000
  C   C16       1.0  0.9320098572990426  0.1886109140063712  0.44654146031459296  1.0000
  C   C17       1.0  0.9602932722642181  0.12150513773459348  0.3390625241361882  1.0000
  C   C18       1.0  0.952596984658501  0.9727057726180924  0.3308747539499588  1.0000
  C   C19       1.0  0.9196335737750917  0.8907496426864263  0.4355472091374961  1.0000
  C   C20       1.0  0.8918827555628873  0.9563526714014475  0.5456741288477827  1.0000
  C   C21       1.0  0.9850783164541564  0.8994539095149355  0.2163673661642065  1.0000
  F   F1        1.0  0.9844275407901923  0.9940881788987431  0.1051593450402637  1.0000
  F   F2        1.0  0.9436976710681785  0.7812801374158918  0.192215599637374  1.0000
  F   F3        1.0  0.05835758650268974  0.8530373218778977  0.2434258546289656  1.0000
  H   H9        1.0  0.769965775171472  0.19771188144752627  0.7849483406516162  1.0000
  H   H10       1.0  0.9367499161929032  0.30462554684190013  0.44781652411493833  1.0000
  H   H11       1.0  0.9876742279795384  0.1865404163699973  0.261626602887419  1.0000
  H   H12       1.0  0.9172323963022939  0.7744372882563421  0.4326624952420397  1.0000
  H   H13       1.0  0.8568854196361368  0.8285084021959647  0.8605995839261351  1.0000
  C   C22       1.0  0.8940940126767988  0.5324171352034308  0.16638902653463816  1.0000
  C   C23       1.0  0.8680000011014636  0.6777193922533378  0.1548903742857699  1.0000
  C   C24       1.0  0.8548238193555788  0.7498144808670497  0.032197202089387256  1.0000
  C   C25       1.0  0.8679999341448251  0.6777192442758506  0.9197392062751315  1.0000
  C   C26       1.0  0.8940939639843551  0.5324171280415857  0.9288859309119961  1.0000
  C   C27       1.0  0.9069903716736896  0.4604646668928152  0.05274968652575862  1.0000
  S   S1        1.0  0.821638639556904  0.9355583628141639  0.018998107876113002  1.0000
  C   C28       1.0  0.7230541898154896  0.8903248240218065  0.024168994041402048  1.0000
  H   H14       1.0  0.903899756420239  0.47764272071561376  0.49803716494309147  1.0000
  H   H15       1.0  0.8576344314292225  0.7354339135789354  0.24088973322431317  1.0000
  H   H16       1.0  0.8576342820619661  0.7354337135423559  0.8255394233745106  1.0000
  H   H17       1.0  0.9271042623457152  0.3483777427664432  0.06071292856391253  1.0000
  H   H18       1.0  0.9038983611034898  0.47764204490107653  0.6050216030737885  1.0000
  H   H19       1.0  0.7100637332005951  0.8268034684657348  0.9410122313298177  1.0000
  H   H20       1.0  0.7100640474417264  0.8268049105062036  0.11724691196591941  1.0000
  H   H21       1.0  0.6877546108455147  0.9918020090849835  0.01727244255880711  1.0000
  Zn  Zn1       1.0  0.8117522303531712  0.5367553606873168  0.5488265356768105  1.0000
  Zn  Zn2       1.0  0.9764285584787095  0.5280785798106251  0.546447948660393  1.0000
  C   C29       1.0  0.8941222970910206  0.5266659960907447  0.7847843622185058  1.0000
  C   C30       1.0  0.8940602805000647  0.5381696711954782  0.31049021513467  1.0000
  C   C31       1.0  0.8927148168130159  0.796087180459941  0.5412428670312455  1.0000
  C   C32       1.0  0.8954677136326116  0.2687467553081182  0.55403178838326  1.0000
  O   O1        1.0  0.9565428008306898  0.5368011834938442  0.35794925820183177  1.0000
  O   O2        1.0  0.9566253051375455  0.5214479187852301  0.7355196579585996  1.0000
  O   O3        1.0  0.9554879045665314  0.7390089768476769  0.5388581827148358  1.0000
  O   O4        1.0  0.9576801451549664  0.3192401387194854  0.5546106368655046  1.0000
  O   O5        1.0  0.8305005874809576  0.7455938047409874  0.5406638482765578  1.0000
  O   O6        1.0  0.8316379790014724  0.528034481159235  0.7373252462638515  1.0000
  O   O7        1.0  0.8315554750070949  0.5433876955573629  0.35975328583183064  1.0000
  O   O8        1.0  0.8326928193821519  0.325826640457447  0.5564147618804536  1.0000
