data_image0
_chemical_formula_structural       NC8NC6H8C6H6C7OH6Zn2C4O8
_chemical_formula_sum              "N2 C31 H20 O9 Zn2"
_cell_length_a       17.457602349358154
_cell_length_b       10.681118228259551
_cell_length_c       9.274081674992354
_cell_angle_alpha    86.07103853506838
_cell_angle_beta     92.53340075860572
_cell_angle_gamma    91.68806569353352

_space_group_name_H-M_alt    "P 1"
_space_group_IT_number       1

loop_
  _space_group_symop_operation_xyz
  'x, y, z'

loop_
  _atom_site_type_symbol
  _atom_site_label
  _atom_site_symmetry_multiplicity
  _atom_site_fract_x
  _atom_site_fract_y
  _atom_site_fract_z
  _atom_site_occupancy
  N   N1        1.0  0.7270867522639997  0.3893218359422097  0.47602181831766854  1.0000
  C   C1        1.0  0.6660448524616496  0.3449470865199049  0.46424300024742826  1.0000
  C   C2        1.0  0.5901061136874314  0.28975048925289437  0.44960073797416666  1.0000
  C   C3        1.0  0.5313232701534912  0.32911159067962825  0.5327044340367808  1.0000
  C   C4        1.0  0.4568205285512464  0.27596279797976964  0.5187439296468555  1.0000
  C   C5        1.0  0.3944317803783171  0.3175243423853946  0.6067538956042362  1.0000
  C   C6        1.0  0.3200743849727661  0.3348613242929137  0.54488076954057  1.0000
  C   C7        1.0  0.2612911721939672  0.3740459827597036  0.6281042470019746  1.0000
  C   C8        1.0  0.1855031410239973  0.39194843461064877  0.5637729274576551  1.0000
  N   N2        1.0  0.12458247995823471  0.40633585533945005  0.5120507141406199  1.0000
  C   C9        1.0  0.2763714661279539  0.39613241904741336  0.7737650828585614  1.0000
  C   C10       1.0  0.3499428419448617  0.3791738099523707  0.8360682734790066  1.0000
  C   C11       1.0  0.4087128962268611  0.34016664752876213  0.7533526666624517  1.0000
  C   C12       1.0  0.4423941398743433  0.18278755597633278  0.42008981446864047  1.0000
  C   C13       1.0  0.5011639075831626  0.14369856538296522  0.33742994730788234  1.0000
  C   C14       1.0  0.5748800169160033  0.19696037296227176  0.35200065565579486  1.0000
  H   H1        1.0  0.5434411531921532  0.4021839940433727  0.6066354115166153  1.0000
  H   H2        1.0  0.3080756697902819  0.3195625413875407  0.4316781799886902  1.0000
  H   H3        1.0  0.23131079596247  0.4264099566162136  0.8390471519597356  1.0000
  H   H4        1.0  0.3614291129352548  0.3959714613041958  0.9488567070683858  1.0000
  H   H5        1.0  0.46504201947974066  0.3261003795079396  0.8045106794686359  1.0000
  H   H6        1.0  0.3859456406577108  0.13898110832585142  0.40827092247613517  1.0000
  H   H7        1.0  0.48956390156183927  0.07169260909863029  0.26216935701009225  1.0000
  H   H8        1.0  0.6199389961980535  0.16584852432264263  0.28728571183349394  1.0000
  C   C15       1.0  0.925838273078437  0.030079031608269524  0.49404279930505046  1.0000
  C   C16       1.0  0.959158910119922  0.9578797909294939  0.6115319672275739  1.0000
  C   C17       1.0  0.9591588985950007  0.8269975517492956  0.6115319002839876  1.0000
  C   C18       1.0  0.9258382600103131  0.7655694354889947  0.49404286042926415  1.0000
  C   C19       1.0  0.892545206402998  0.8377591906959858  0.3766507868721296  1.0000
  C   C20       1.0  0.8925452179121418  0.9686514497411733  0.3766508464153069  1.0000
  H   H9        1.0  0.8921418810902467  0.33423503667375054  0.37523001708318104  1.0000
  H   H10       1.0  0.985277243045366  0.002469255098545231  0.7036254813801146  1.0000
  H   H11       1.0  0.9852771488221962  0.7739652222723007  0.7036254473789438  1.0000
  H   H12       1.0  0.8664234680599425  0.7932150329542492  0.28454524858921504  1.0000
  H   H13       1.0  0.8664234479908998  0.021639471038228608  0.28454523504996354  1.0000
  H   H14       1.0  0.8921421646726924  0.4723056948983755  0.37522965288185595  1.0000
  C   C21       1.0  0.9271326885432225  0.39459680242507056  0.0708904266621726  1.0000
  C   C22       1.0  0.9894244903791322  0.45176480016027254  0.14506261791801278  1.0000
  C   C23       1.0  0.047372792557326626  0.5179855170317131  0.0698320873330851  1.0000
  C   C24       1.0  0.04301373508899209  0.5273771868355479  0.9183142827740243  1.0000
  C   C25       1.0  0.9823291763524304  0.4695639400886038  0.8430849442088912  1.0000
  C   C26       1.0  0.9245438396513435  0.40105162294342955  0.9171951889520629  1.0000
  C   C27       1.0  0.1114530050757856  0.5777230016596597  0.15108522995217433  1.0000
  O   O1        1.0  0.1642377261674839  0.6383276616228957  0.08652989967604552  1.0000
  H   H15       1.0  0.7454041752114096  0.30546846773223013  0.1657873927809681  1.0000
  H   H16       1.0  0.9919588155056753  0.44722473443158317  0.2623316649647838  1.0000
  H   H17       1.0  0.0869295837445907  0.5784412934871217  0.8576869429910876  1.0000
  H   H18       1.0  0.9816177525351059  0.47600385207604146  0.7259467022854271  1.0000
  H   H19       1.0  0.8034032470534793  0.3359506570054702  0.6311306848715139  1.0000
  H   H20       1.0  0.11368903627696869  0.569857348221972  0.2681950916606055  1.0000
  Zn  Zn1       1.0  0.8417954074776351  0.39422841954151977  0.48642729939959706  1.0000
  Zn  Zn2       1.0  0.009873774406501834  0.40141909414037213  0.5016570305048043  1.0000
  C   C28       1.0  0.9250314718191566  0.39484253502562416  0.7572253458141434  1.0000
  C   C29       1.0  0.926639545042831  0.4008066383604052  0.23085929183048792  1.0000
  C   C30       1.0  0.9258518723093973  0.6265021024716861  0.4883003165281574  1.0000
  C   C31       1.0  0.9258190869642307  0.16914556446338858  0.49978439274405306  1.0000
  O   O2        1.0  0.9902589058810783  0.4056140761492537  0.29032590789817836  1.0000
  O   O3        1.0  0.9889797036801625  0.39549170497665176  0.709317328457937  1.0000
  O   O4        1.0  0.9896413230175252  0.5825597100664774  0.49215838670746015  1.0000
  O   O5        1.0  0.9895972295204597  0.21854607674014703  0.5074847364085631  1.0000
  O   O6        1.0  0.8620718950068026  0.577101434489226  0.48059958829109917  1.0000
  O   O7        1.0  0.8614102759009252  0.3900349333978361  0.697758453209258  1.0000
  O   O8        1.0  0.8626894834524966  0.4001572477190891  0.2787653001834687  1.0000
  O   O9        1.0  0.8620278067582597  0.21308924017674435  0.49592423672920694  1.0000
