data_image0
_chemical_formula_structural       NC9NC5H8C7OC3OC4H12C7OC3FC3H8Zn2C4O8
_chemical_formula_sum              "N2 C45 H28 O11 F1 Zn2"
_cell_length_a       17.807436237873137
_cell_length_b       10.299371110280156
_cell_length_c       10.29938172300155
_cell_angle_alpha    85.59389208423815
_cell_angle_beta     89.37614531969923
_cell_angle_gamma    88.40331171880233

_space_group_name_H-M_alt    "P 1"
_space_group_IT_number       1

loop_
  _space_group_symop_operation_xyz
  'x, y, z'

loop_
  _atom_site_type_symbol
  _atom_site_label
  _atom_site_symmetry_multiplicity
  _atom_site_fract_x
  _atom_site_fract_y
  _atom_site_fract_z
  _atom_site_occupancy
  N   N1        1.0  0.7078353348071393  0.38736876055191094  0.5575648452418522  1.0000
  C   C1        1.0  0.6472449747545007  0.35217614147757437  0.5465298617973631  1.0000
  C   C2        1.0  0.5718772262961574  0.30840039895850024  0.5328035405752825  1.0000
  C   C3        1.0  0.5537938198793521  0.23695743287461335  0.4277781887486902  1.0000
  C   C4        1.0  0.4806156241581083  0.1943430420508001  0.414368152192419  1.0000
  C   C5        1.0  0.4244720717058939  0.2227940795077916  0.5059508971471423  1.0000
  C   C6        1.0  0.3467025152444579  0.17762089559093996  0.491781611614204  1.0000
  C   C7        1.0  0.2845326836944425  0.2593838705092  0.5177462334086556  1.0000
  C   C8        1.0  0.2112121539204997  0.21656644551517396  0.5043498141716518  1.0000
  C   C9        1.0  0.1479925288574333  0.3010208658998343  0.5306791849058772  1.0000
  N   N2        1.0  0.0971769379460302  0.36891637728667837  0.551847270652166  1.0000
  C   C10       1.0  0.19947788086410678  0.09172805923479667  0.4649633422967227  1.0000
  C   C11       1.0  0.2607903421518868  0.009951229800889244  0.43899032644572067  1.0000
  C   C12       1.0  0.3339914213385864  0.05237406027396974  0.45218408317487974  1.0000
  C   C13       1.0  0.44324691165309243  0.29473146977199516  0.6111956341165179  1.0000
  C   C14       1.0  0.5164779793789488  0.33715542495053197  0.6244499599728168  1.0000
  H   H1        1.0  0.5961976953188711  0.21445311344185414  0.3560583194467639  1.0000
  H   H2        1.0  0.4677097566689324  0.14063872860650406  0.33143077163533063  1.0000
  H   H3        1.0  0.2930382620758424  0.3568563091358008  0.5466539068045677  1.0000
  H   H4        1.0  0.14301010777051648  0.05768923676666283  0.4543577610919747  1.0000
  H   H5        1.0  0.251586727592521  0.9132985691961899  0.40888249859605286  1.0000
  H   H6        1.0  0.38062671046751506  0.9866240479710294  0.43311501866193275  1.0000
  H   H7        1.0  0.4015596296410682  0.31669708602047253  0.684209833322375  1.0000
  H   H8        1.0  0.5299125315516292  0.39208004432694504  0.7063460964984141  1.0000
  C   C15       1.0  0.9024590942534502  0.9967733841126295  0.5545919688944276  1.0000
  C   C16       1.0  0.893825806736756  0.006436597358478568  0.4187360383015146  1.0000
  C   C17       1.0  0.8886227832413266  0.8941637969707147  0.3503947145962052  1.0000
  C   C18       1.0  0.8938630447589498  0.7711670280311145  0.4190465719532001  1.0000
  C   C19       1.0  0.9025603580909278  0.7595014649196823  0.5548313298362784  1.0000
  C   C20       1.0  0.9066113585740623  0.8729132988674335  0.6218588915793808  1.0000
  C   C21       1.0  0.880290128465144  0.9042022735936238  0.20677259044601426  1.0000
  O   O1        1.0  0.911096573489231  0.8176878105383987  0.14229837898197628  1.0000
  C   C22       1.0  0.837000754690346  0.012305629755348765  0.1362987159950837  1.0000
  C   C23       1.0  0.8580208491531691  0.05643834339404386  0.008849717035416482  1.0000
  C   C24       1.0  0.8173973808724493  0.15735995195532682  0.9400667017039046  1.0000
  O   O2        1.0  0.8414038291623863  0.19799874375929938  0.8136185399029539  1.0000
  C   C25       1.0  0.8056070623935174  0.29916047134863377  0.7327106667095675  1.0000
  C   C26       1.0  0.7543675390135722  0.2142202751107123  0.9994793623207539  1.0000
  C   C27       1.0  0.7325764078476759  0.16983389456382425  0.12542265183166945  1.0000
  C   C28       1.0  0.7733333208185613  0.06918707835654647  0.19345154315643875  1.0000
  H   H9        1.0  0.919897472597035  0.18582295142253205  0.8107243304904846  1.0000
  H   H10       1.0  0.8919744382418346  0.10144582264732095  0.36573444348284356  1.0000
  H   H11       1.0  0.8904177191880966  0.6844570889290719  0.36637564749974927  1.0000
  H   H12       1.0  0.9132674742046382  0.8646598453564321  0.7265938524907791  1.0000
  H   H13       1.0  0.9065263867628867  0.42754313494600127  0.6068590361735073  1.0000
  H   H14       1.0  0.9066021131577766  0.013228781428064267  0.962764251931838  1.0000
  H   H15       1.0  0.8362687709862406  0.3107755403744266  0.6383911636353625  1.0000
  H   H16       1.0  0.8067060317507151  0.3925765650523818  0.7797127592439274  1.0000
  H   H17       1.0  0.7467353241163667  0.2737124677645219  0.7138113351479829  1.0000
  H   H18       1.0  0.7217439834893721  0.2922532315311728  0.9490708714230829  1.0000
  H   H19       1.0  0.6837114148739172  0.21321800986692274  0.17029057286775395  1.0000
  H   H20       1.0  0.7545764088985948  0.034951319677244415  0.2901039698580361  1.0000
  C   C29       1.0  0.9025729532188113  0.37803328182877666  0.1733430128165141  1.0000
  C   C30       1.0  0.926329795410057  0.2464523101373768  0.1818141921975993  1.0000
  C   C31       1.0  0.9391283162602521  0.18050405586490426  0.068866207229072  1.0000
  C   C32       1.0  0.9262579807249764  0.24674884911996522  0.9465492893432067  1.0000
  C   C33       1.0  0.9024464652976519  0.3782415231484404  0.9360802897242144  1.0000
  C   C34       1.0  0.8909311134862902  0.44321782790309605  0.0500618328379141  1.0000
  C   C35       1.0  0.9634534735234103  0.04118213578895658  0.0777106574904185  1.0000
  O   O3        1.0  0.9403048867673292  0.9690348034848038  0.9938462133838809  1.0000
  C   C36       1.0  0.014044670717393128  0.9837110792587413  0.18159554532233035  1.0000
  C   C37       1.0  0.007975138746872503  0.8520373002455373  0.22691615936450926  1.0000
  C   C38       1.0  0.056007337245804534  0.7965535094739985  0.3237504701054281  1.0000
  F   F1        1.0  0.04933785012980762  0.6698018608674913  0.3674770906033691  1.0000
  C   C39       1.0  0.11088585864372758  0.8715765384519147  0.37543700577989014  1.0000
  C   C40       1.0  0.11803711160450558  0.0019935973393900926  0.3300350674909185  1.0000
  C   C41       1.0  0.07015394237178785  0.057882097222977213  0.23326967411293364  1.0000
  H   H21       1.0  0.8566372256002799  0.6257816190266068  0.36474050922242496  1.0000
  H   H22       1.0  0.9341062254598215  0.19469305731112138  0.2764893578910874  1.0000
  H   H23       1.0  0.9355628461985189  0.19575814794519553  0.859370878994127  1.0000
  H   H24       1.0  0.8726160057861133  0.5446566677446327  0.042727134490191165  1.0000
  H   H25       1.0  0.9656457170729538  0.7925269106891814  0.18814540225096765  1.0000
  H   H26       1.0  0.14809220020550984  0.8286045791855553  0.45029429818061173  1.0000
  H   H27       1.0  0.1609557933556205  0.05972831432331139  0.36943554338262063  1.0000
  H   H28       1.0  0.07755357050206668  0.15849076118132288  0.1979321635277529  1.0000
  Zn  Zn1       1.0  0.8201909083332318  0.38204033809878835  0.5559223864209693  1.0000
  Zn  Zn2       1.0  0.9848213430472021  0.37423421647804067  0.5535004027550317  1.0000
  C   C42       1.0  0.9024680314180967  0.3730285875243175  0.7919049954549606  1.0000
  C   C43       1.0  0.9025460179179665  0.3832475204647756  0.31751789525360596  1.0000
  C   C44       1.0  0.9025382018723073  0.6153283833958438  0.5496109599768624  1.0000
  C   C45       1.0  0.9024757910682776  0.14094616697280293  0.5598120003071145  1.0000
  O   O4        1.0  0.9650133694280196  0.3820294183674695  0.36498517089645777  1.0000
  O   O5        1.0  0.9649513704989103  0.3683210441079632  0.7425991160973602  1.0000
  O   O6        1.0  0.9650071915925708  0.5639812338764398  0.5469449809925306  1.0000
  O   O7        1.0  0.9649574921745218  0.18636924052632864  0.5606392094560673  1.0000
  O   O8        1.0  0.8400547030256259  0.5699053167157584  0.5487835805396075  1.0000
  O   O9        1.0  0.8399988821471575  0.37424668723298615  0.7444376468887002  1.0000
  O   O10       1.0  0.840060881379105  0.38795501580778563  0.3668221402733509  1.0000
  O   O11       1.0  0.8400050041051579  0.1922948287045667  0.5624762761978543  1.0000
