data_image0
_chemical_formula_structural       NC12NC2H8C13OH12C13NH9Zn2C4O8
_chemical_formula_sum              "N3 C44 H29 O9 Zn2"
_cell_length_a       19.240039667572717
_cell_length_b       10.299150109392551
_cell_length_c       10.298528502251457
_cell_angle_alpha    85.52101086159662
_cell_angle_beta     89.99709375093414
_cell_angle_gamma    89.97992514300192

_space_group_name_H-M_alt    "P 1"
_space_group_IT_number       1

loop_
  _space_group_symop_operation_xyz
  'x, y, z'

loop_
  _atom_site_type_symbol
  _atom_site_label
  _atom_site_symmetry_multiplicity
  _atom_site_fract_x
  _atom_site_fract_y
  _atom_site_fract_z
  _atom_site_occupancy
  N   N1        1.0  0.6542493539594227  0.4218759675394426  0.5668094696340462  1.0000
  C   C1        1.0  0.5941009851286099  0.4218760515553437  0.5668093876595655  1.0000
  C   C2        1.0  0.5192829479691677  0.42187616889723145  0.5668092502995901  1.0000
  C   C3        1.0  0.4828185242886218  0.3573704364965318  0.670255114026792  1.0000
  C   C4        1.0  0.4101477946410361  0.3572595168385743  0.6703417030361427  1.0000
  C   C5        1.0  0.3729507130206418  0.42187626154748503  0.5668090225593614  1.0000
  C   C6        1.0  0.4101293097471212  0.4864931931912937  0.4632765365870737  1.0000
  C   C7        1.0  0.4828000167041102  0.48638203797324336  0.46336324818857894  1.0000
  C   C8        1.0  0.2957456225983524  0.4218761829125988  0.5668089271572858  1.0000
  C   C9        1.0  0.2585779225847871  0.3085920516636016  0.6087213862596863  1.0000
  C   C10       1.0  0.1859072166241056  0.3086989916155927  0.60863001494763  1.0000
  C   C11       1.0  0.149413335697733  0.4218760537085984  0.5668089881168084  1.0000
  C   C12       1.0  0.0745952985573791  0.4218759398717076  0.5668092368453876  1.0000
  N   N2        1.0  0.014446981707291702  0.42187589897369443  0.5668094453039862  1.0000
  C   C13       1.0  0.1858669656151837  0.5350531916533465  0.5249879083641835  1.0000
  C   C14       1.0  0.25853764422713765  0.5351603117962229  0.5248963743791757  1.0000
  H   H1        1.0  0.5105405645713732  0.3074284639518832  0.7510225697048933  1.0000
  H   H2        1.0  0.38306148229649567  0.3081153117988822  0.7522245482266892  1.0000
  H   H3        1.0  0.3830290912998367  0.5356374253029543  0.38139364053301783  1.0000
  H   H4        1.0  0.5105077478957761  0.5363239101531168  0.38259606837272897  1.0000
  H   H5        1.0  0.2856870750310572  0.21941888927436914  0.6399216105867158  1.0000
  H   H6        1.0  0.1582080552851215  0.22042472799003934  0.6408630458447018  1.0000
  H   H7        1.0  0.15813630351058588  0.6233274307351098  0.4927548920272695  1.0000
  H   H8        1.0  0.2856149705844399  0.6243335533837012  0.4936961052495108  1.0000
  C   C15       1.0  0.834417007848295  0.040476250429396524  0.5669535841744773  1.0000
  C   C16       1.0  0.8331332298479689  0.028625069673788864  0.7037810252439236  1.0000
  C   C17       1.0  0.8324218591546726  0.9054817600960549  0.7728917155348833  1.0000
  C   C18       1.0  0.8329992371045021  0.793369849780294  0.7034175858904625  1.0000
  C   C19       1.0  0.8342860034482175  0.8032655946667511  0.5666765543455043  1.0000
  C   C20       1.0  0.8349892806126773  0.9272789355823984  0.49924365748655153  1.0000
  C   C21       1.0  0.8310577100065561  0.8939263359546555  0.9175495007034735  1.0000
  C   C22       1.0  0.7883186854133618  0.8010227321134289  0.9855792277437257  1.0000
  C   C23       1.0  0.7870119960003097  0.7902304988494252  0.1217020590192056  1.0000
  C   C24       1.0  0.8288765695307014  0.8711823859995566  0.19225596150988578  1.0000
  C   C25       1.0  0.8709506320214099  0.9650394037623506  0.12486888467566948  1.0000
  C   C26       1.0  0.8722734548751527  0.9760074341550623  0.9887457646488957  1.0000
  C   C27       1.0  0.8260110547763938  0.8619397453015655  0.33836007784171496  1.0000
  O   O1        1.0  0.7740627168798879  0.9451013364265927  0.37860565884269304  1.0000
  H   H9        1.0  0.8363886558562769  0.2701387454852589  0.3086853773328837  1.0000
  H   H10       1.0  0.8317200936962865  0.11537890824617204  0.7567960780624137  1.0000
  H   H11       1.0  0.8333944134066126  0.698227773775443  0.7562575543610509  1.0000
  H   H12       1.0  0.8359798353229763  0.9356280282856198  0.3937712082404248  1.0000
  H   H13       1.0  0.8347341588764491  0.4795963772208773  0.5140811578488418  1.0000
  H   H14       1.0  0.7550815798684694  0.7380334768652099  0.9334641744716254  1.0000
  H   H15       1.0  0.7532011855083229  0.7188821467549537  0.17208377986722612  1.0000
  H   H16       1.0  0.9029074893354594  0.029581351842755014  0.17773023506887964  1.0000
  H   H17       1.0  0.9061075314463201  0.04780091926895502  0.9391707855937043  1.0000
  H   H18       1.0  0.8771339465231891  0.8897539818462661  0.3785349819626709  1.0000
  H   H19       1.0  0.8147152072955224  0.7599043852709716  0.3761772806496536  1.0000
  H   H20       1.0  0.7743176384640272  0.9353881524505974  0.4752441427870376  1.0000
  C   C28       1.0  0.8343613633821051  0.4219974304752921  0.18539813703935315  1.0000
  C   C29       1.0  0.7621024031360781  0.44186097289779647  0.18290083939076496  1.0000
  C   C30       1.0  0.7254953994157353  0.45178574692019097  0.06448899883777104  1.0000
  C   C31       1.0  0.762081701216553  0.4415960923632242  0.9476412319836673  1.0000
  C   C32       1.0  0.834341648597332  0.42174443053344013  0.948231948374536  1.0000
  C   C33       1.0  0.8700187770680747  0.41206945739163553  0.06757718915374289  1.0000
  C   C34       1.0  0.6491031456752346  0.47277978303284335  0.06285652674803499  1.0000
  C   C35       1.0  0.6184014160133706  0.5607178530325285  0.14374064093422456  1.0000
  C   C36       1.0  0.5464934740097003  0.5804324936207121  0.14208453356115291  1.0000
  C   C37       1.0  0.5043304319778252  0.5125685355277609  0.05976013596486162  1.0000
  C   C38       1.0  0.5343461491716892  0.4248668188366423  0.9789799433139232  1.0000
  C   C39       1.0  0.6062466883917406  0.4050578060926793  0.9803994747316276  1.0000
  C   C40       1.0  0.4303011218499617  0.5329154773263124  0.05817581756297008  1.0000
  N   N3        1.0  0.3707865483917235  0.5492731695029253  0.056902167382713024  1.0000
  H   H21       1.0  0.9708450250272256  0.3836547131049824  0.3975046776214153  1.0000
  H   H22       1.0  0.734032256414407  0.4478692809501925  0.27341428498655884  1.0000
  H   H23       1.0  0.7342724171386379  0.45094405660500314  0.8559338770252114  1.0000
  H   H24       1.0  0.9257101536776083  0.39676495445677756  0.0687670239432665  1.0000
  H   H25       1.0  0.9709534536028288  0.385044626765332  0.7419599518227655  1.0000
  H   H26       1.0  0.6500948540674055  0.6154904994285599  0.20702376435043734  1.0000
  H   H27       1.0  0.5238237570856299  0.6488282632444389  0.2047667392147685  1.0000
  H   H28       1.0  0.5021720844571504  0.3715444496432396  0.9151245645244539  1.0000
  H   H29       1.0  0.6282341938637336  0.3355317585588842  0.9182644597773622  1.0000
  Zn  Zn1       1.0  0.7581946182039001  0.4218724777873171  0.5668169532408167  1.0000
  Zn  Zn2       1.0  0.9105017377794389  0.42186879087562157  0.5668125657791778  1.0000
  C   C41       1.0  0.8343447110746728  0.41661818285507396  0.8040419275563815  1.0000
  C   C42       1.0  0.8343533078129344  0.4271247244771339  0.32958771830298783  1.0000
  C   C43       1.0  0.834307321817459  0.6590839268531827  0.5615530774284005  1.0000
  C   C44       1.0  0.8343906453645793  0.18465742002883778  0.5720766382465743  1.0000
  O   O2        1.0  0.8921503633871641  0.42883842582019477  0.3779773960023458  1.0000
  O   O3        1.0  0.8921452352893614  0.4149007035537775  0.7556485463379378  1.0000
  O   O4        1.0  0.8921142637880171  0.6106948578010967  0.5598370837426916  1.0000
  O   O5        1.0  0.8921812829173269  0.2330442808974005  0.5737887612087895  1.0000
  O   O6        1.0  0.7765150210910674  0.6106969877682126  0.5598407578058695  1.0000
  O   O7        1.0  0.7765459923230351  0.4149043939737551  0.7556521505801757  1.0000
  O   O8        1.0  0.7765511205151975  0.4288420714984052  0.377979438663788  1.0000
  O   O9        1.0  0.7765820400415968  0.23304791725376006  0.5737909012536992  1.0000
