data_image0
_chemical_formula_structural       NC8NC6H8C6SCH6C8H8Zn2C4O8
_chemical_formula_sum              "N2 C33 H22 S1 Zn2 O8"
_cell_length_a       17.457602349358154
_cell_length_b       10.302809429070853
_cell_length_c       9.275657083861812
_cell_angle_alpha    85.85419947876746
_cell_angle_beta     92.37146316173272
_cell_angle_gamma    91.68806441137123

_space_group_name_H-M_alt    "P 1"
_space_group_IT_number       1

loop_
  _space_group_symop_operation_xyz
  'x, y, z'

loop_
  _atom_site_type_symbol
  _atom_site_label
  _atom_site_symmetry_multiplicity
  _atom_site_fract_x
  _atom_site_fract_y
  _atom_site_fract_z
  _atom_site_occupancy
  N   N1        1.0  0.7294602249586932  0.4456480277612964  0.4760561774812029  1.0000
  C   C1        1.0  0.6684366706588092  0.39968493565501806  0.46427763415160195  1.0000
  C   C2        1.0  0.5925207372003681  0.34251260848425047  0.4496357134144557  1.0000
  C   C3        1.0  0.533608464407664  0.38302936051537473  0.5327375166723929  1.0000
  C   C4        1.0  0.45912746629262063  0.32797765505540366  0.518777338003303  1.0000
  C   C5        1.0  0.39660164762798816  0.3707585478142156  0.6067852994292869  1.0000
  C   C6        1.0  0.322340615280346  0.38894777918907053  0.5449135748457579  1.0000
  C   C7        1.0  0.2634277866941022  0.4292811919640711  0.6281351568131284  1.0000
  C   C8        1.0  0.1877399470482402  0.4480652245695924  0.5638052944497043  1.0000
  N   N2        1.0  0.1268998397069452  0.46316120979851694  0.51208425270333  1.0000
  C   C9        1.0  0.2782812230036035  0.45167093353525334  0.7737926828490955  1.0000
  C   C10       1.0  0.3517555659586258  0.4338724694975995  0.8360944621649815  1.0000
  C   C11       1.0  0.4106544450696389  0.39372130011003703  0.7533807392854868  1.0000
  C   C12       1.0  0.4448547265615276  0.23172496026900413  0.42012547754856033  1.0000
  C   C13       1.0  0.50375323228989  0.19148876378763546  0.33746749307333745  1.0000
  C   C14       1.0  0.5774466477807493  0.24665550711439432  0.3520378618314657  1.0000
  H   H1        1.0  0.5456112035191455  0.4585272305363401  0.6066668039311516  1.0000
  H   H2        1.0  0.310518206005571  0.3734817968154654  0.43171355726179167  1.0000
  H   H3        1.0  0.23311887975620363  0.4828326978352453  0.8390732651654673  1.0000
  H   H4        1.0  0.36306617603645  0.450893800774627  0.9488803329371346  1.0000
  H   H5        1.0  0.46690389329800813  0.37896022646265426  0.8045375932734853  1.0000
  H   H6        1.0  0.3884246352501197  0.18635117708341456  0.40830686111162473  1.0000
  H   H7        1.0  0.49227044096261835  0.11710113395682642  0.2622086229979459  1.0000
  H   H8        1.0  0.6226064168984355  0.21462682001196898  0.28732439206057214  1.0000
  C   C15       1.0  0.9281836854408941  0.07315137503441393  0.4940768092675203  1.0000
  C   C16       1.0  0.9730091590869319  0.08220423066757321  0.37129785522779946  1.0000
  C   C17       1.0  0.995103143528394  0.9697196133457676  0.31002464519827466  1.0000
  C   C18       1.0  0.9730090627467372  0.8470530681435747  0.37129776902283806  1.0000
  C   C19       1.0  0.9281836549089123  0.8356482350231179  0.4940767989321439  1.0000
  C   C20       1.0  0.9059702457942939  0.9493363363465163  0.5548371655931024  1.0000
  S   S1        1.0  0.05251501154211848  0.9827835649593665  0.1533375714664451  1.0000
  C   C21       1.0  0.9699590095962574  0.9868936798703192  0.026888184744983553  1.0000
  H   H9        1.0  0.990813370585661  0.1763668158864966  0.32252805069937557  1.0000
  H   H10       1.0  0.9908132018711734  0.7610164144447393  0.32252792307158185  1.0000
  H   H11       1.0  0.8713819190659436  0.9414468207181153  0.6495260995563701  1.0000
  H   H12       1.0  0.9346775858448936  0.8959727116153087  0.04291228613227794  1.0000
  H   H13       1.0  0.934678306456908  0.0722077026120298  0.04291182743733502  1.0000
  H   H14       1.0  0.9902865859908203  0.9952040638382382  0.9147893872177022  1.0000
  C   C22       1.0  0.9301371268486207  0.45252873178253084  0.07093398043186716  1.0000
  C   C23       1.0  0.9698629176809734  0.5532474023229186  0.13947551153648696  1.0000
  C   C24       1.0  0.0028170895070449556  0.6592243843270051  0.05872422562667156  1.0000
  C   C25       1.0  0.9971836586400817  0.6636471098414282  0.9075746657327005  1.0000
  C   C26       1.0  0.9591142495470438  0.563582706258493  0.8377306824555433  1.0000
  C   C27       1.0  0.926230205233015  0.4562708499175525  0.9172196024393209  1.0000
  C   C28       1.0  0.04608845750704173  0.7652424787967143  0.13384668239863773  1.0000
  C   C29       1.0  0.1303247438243853  0.7319074035550451  0.15932735517877483  1.0000
  H   H15       1.0  0.8957134749055182  0.24389499621974764  0.3656405339934994  1.0000
  H   H16       1.0  0.02303779134012919  0.744137313536654  0.8435321150223483  1.0000
  H   H17       1.0  0.835682544693395  0.30265189397942316  0.6411770375362816  1.0000
  H   H18       1.0  0.04188854205531368  0.8593093822660441  0.06762564059309706  1.0000
  H   H19       1.0  0.020581349222543066  0.778822311932666  0.23941094535766294  1.0000
  H   H20       1.0  0.13578417679733756  0.639789320922389  0.22857044922774317  1.0000
  H   H21       1.0  0.1573126554009563  0.7211478407700345  0.05459900911467263  1.0000
  H   H22       1.0  0.16116510491478264  0.8112012879163895  0.2146896480343059  1.0000
  Zn  Zn1       1.0  0.8441526742304013  0.4506985089328441  0.4864614215671643  1.0000
  Zn  Zn2       1.0  0.012207321723561653  0.45810013619702294  0.5016908057974039  1.0000
  C   C30       1.0  0.9269669882779263  0.45039133389990305  0.7572533214307948  1.0000
  C   C31       1.0  0.9293948421745739  0.45840903080418594  0.23089921366674182  1.0000
  C   C32       1.0  0.9282062179712504  0.691494521968397  0.48833435749836235  1.0000
  C   C33       1.0  0.9281555547813606  0.21730428071970742  0.4998182492253786  1.0000
  O   O1        1.0  0.9929215875568687  0.4631857278204172  0.2903644791880582  1.0000
  O   O2        1.0  0.9909898337380629  0.4512313194552473  0.7093463913604608  1.0000
  O   O3        1.0  0.991989660741524  0.6459251617467185  0.49219234742744905  1.0000
  O   O4        1.0  0.9919217037065156  0.268491891812942  0.5075184098835472  1.0000
  O   O5        1.0  0.8644382348986794  0.6403067507924927  0.48063381227640006  1.0000
  O   O6        1.0  0.8634384082463392  0.4456144679925735  0.6977877793785874  1.0000
  O   O7        1.0  0.8653701701140044  0.4575688234572105  0.27880413477948673  1.0000
  O   O8        1.0  0.8643702857617751  0.26287497864130716  0.495958173507878  1.0000
