data_image0
_chemical_formula_structural       NC8NC6H8C6H4C6NCH6Zn2C4O8
_chemical_formula_sum              "N3 C31 H18 Zn2 O8"
_cell_length_a       17.457602349358154
_cell_length_b       10.681118228259551
_cell_length_c       9.273390368590327
_cell_angle_alpha    86.16779738115358
_cell_angle_beta     92.8511133753594
_cell_angle_gamma    91.68806569353352

_space_group_name_H-M_alt    "P 1"
_space_group_IT_number       1

loop_
  _space_group_symop_operation_xyz
  'x, y, z'

loop_
  _atom_site_type_symbol
  _atom_site_label
  _atom_site_symmetry_multiplicity
  _atom_site_fract_x
  _atom_site_fract_y
  _atom_site_fract_z
  _atom_site_occupancy
  N   N1        1.0  0.7225529581439076  0.3868863102282114  0.47569715516429184  1.0000
  C   C1        1.0  0.6614760166744585  0.3424927366425195  0.46391582777451984  1.0000
  C   C2        1.0  0.5854937175636177  0.28727273903637934  0.4492704461632655  1.0000
  C   C3        1.0  0.5269581052913159  0.3267666515434302  0.5323918463559945  1.0000
  C   C4        1.0  0.45241383156382337  0.2735955480468484  0.5184283678674686  1.0000
  C   C5        1.0  0.3902869106735699  0.31529774442358  0.6064570831700951  1.0000
  C   C6        1.0  0.3157454443813678  0.33253584460736807  0.5445707758650846  1.0000
  C   C7        1.0  0.25720981921064834  0.37185350558154384  0.627811982974428  1.0000
  C   C8        1.0  0.1812304040945082  0.38965314717913485  0.5634669585035448  1.0000
  N   N2        1.0  0.12015587083462  0.403957908732081  0.5117337264612567  1.0000
  C   C9        1.0  0.2727234502153831  0.39417272782086044  0.7735038499224438  1.0000
  C   C10       1.0  0.3464801763494368  0.3773136877515719  0.8358203134037316  1.0000
  C   C11       1.0  0.4050041539248716  0.33817433446737705  0.7530870851342806  1.0000
  C   C12       1.0  0.4376939495464682  0.18026264326503535  0.4197532357504858  1.0000
  C   C13       1.0  0.4962178063727004  0.14104155089068082  0.33707575901141973  1.0000
  C   C14       1.0  0.5699772631711593  0.19432664445615133  0.3516495714537189  1.0000
  H   H1        1.0  0.5392959310004307  0.3999572067277699  0.6063385738410254  1.0000
  H   H2        1.0  0.303409954538289  0.3170561484703889  0.4313440700167013  1.0000
  H   H3        1.0  0.2278569924504414  0.4245545950709317  0.8387998264946488  1.0000
  H   H4        1.0  0.3583019898975701  0.3942915904570911  0.9486327750592295  1.0000
  H   H5        1.0  0.46148547089052466  0.32418982395277385  0.8042559964703513  1.0000
  H   H6        1.0  0.38121028944389534  0.13643730740755464  0.4079318259012359  1.0000
  H   H7        1.0  0.48439390211853606  0.06891531788248995  0.26179913545221933  1.0000
  H   H8        1.0  0.6148437172351255  0.16311137247906649  0.2869208409788371  1.0000
  C   C15       1.0  0.9213580908923088  0.027672305888335212  0.49372197528046513  1.0000
  C   C16       1.0  0.955028255049801  0.9556608289800853  0.6112361726976386  1.0000
  C   C17       1.0  0.9550282433257246  0.8247785896929021  0.611236105739791  1.0000
  C   C18       1.0  0.9213580780060278  0.7631627098667452  0.493722036417701  1.0000
  C   C19       1.0  0.8877157861358318  0.8351648564732953  0.3763049540505705  1.0000
  C   C20       1.0  0.8877157978221152  0.9660571156136407  0.3763050136064329  1.0000
  H   H9        1.0  0.98142056370402  0.00039747118915567847  0.7033493061407114  1.0000
  H   H10       1.0  0.9814204693796976  0.7718934383085722  0.7033492721322965  1.0000
  H   H11       1.0  0.861320036292537  0.7904735014753344  0.2841797939155444  1.0000
  H   H12       1.0  0.8613200161832155  0.018897939537676475  0.2841797803734085  1.0000
  C   C21       1.0  0.9213936394244497  0.39151382129879364  0.07047945568842984  1.0000
  C   C22       1.0  0.9918578417374305  0.39205103076573034  0.1504684369288105  1.0000
  C   C23       1.0  0.061092989276101406  0.40417694478135874  0.08132875002665307  1.0000
  C   C24       1.0  0.06162303611062536  0.4161804418900849  0.9297488028706562  1.0000
  C   C25       1.0  0.9916264610479992  0.41355136354800703  0.8489926027009773  1.0000
  C   C26       1.0  0.9213225383852455  0.3993211869985567  0.9169645465604054  1.0000
  N   N3        1.0  0.13215488603728387  0.4298039432334366  0.855353159092958  1.0000
  C   C27       1.0  0.20790439579259967  0.43320393927371437  0.9292068842717272  1.0000
  H   H13       1.0  0.8002992012132573  0.3261593541159211  0.3453440993198218  1.0000
  H   H14       1.0  0.11395320410083776  0.40529422343504606  0.14724071938860583  1.0000
  H   H15       1.0  0.7425269836694716  0.29435326353347424  0.8052683895188966  1.0000
  H   H16       1.0  0.12966558040219778  0.4379966441152394  0.7422517090449663  1.0000
  H   H17       1.0  0.212883534939865  0.5137517456177614  0.9991267070604767  1.0000
  H   H18       1.0  0.21726271817775167  0.3440887666409648  0.9956090045419979  1.0000
  Zn  Zn1       1.0  0.8372925693840225  0.3918095232104392  0.486104852994689  1.0000
  Zn  Zn2       1.0  0.005416244353492641  0.39902453700401863  0.501337828590261  1.0000
  C   C28       1.0  0.9213342506335307  0.3928564110355592  0.756960589308431  1.0000
  C   C29       1.0  0.9213763989973538  0.39797930937484716  0.23048240008230844  1.0000
  C   C30       1.0  0.9213546063913878  0.6240861994783282  0.48797826914447895  1.0000
  C   C31       1.0  0.9213559858642273  0.16674801459559463  0.4994647918890991  1.0000
  O   O1        1.0  0.9851726714197105  0.4028817829550859  0.2899616847166  1.0000
  O   O2        1.0  0.9851399574308545  0.3934290174179082  0.7090423657903691  1.0000
  O   O3        1.0  0.9851555347545793  0.5801499727973023  0.4918371612339935  1.0000
  O   O4        1.0  0.9851570367358431  0.21616083307543807  0.507166776008759  1.0000
  O   O5        1.0  0.8575517196293131  0.5746732246781828  0.4802759003703425  1.0000
  O   O6        1.0  0.8575361423084993  0.3879537731744369  0.6974810280780319  1.0000
  O   O7        1.0  0.8575688564939714  0.39740647909154747  0.27839861416915435  1.0000
  O   O8        1.0  0.8575532217978882  0.21068552125131723  0.495603813519682  1.0000
