data_image0
_chemical_formula_structural       NC9NC5H8C6SCH8C6OCH7Zn2C4O8
_chemical_formula_sum              "N2 C32 H23 S1 O9 Zn2"
_cell_length_a       17.807436237873137
_cell_length_b       10.302809429070853
_cell_length_c       9.273891588657152
_cell_angle_alpha    86.07628969810115
_cell_angle_beta     89.08663702953788
_cell_angle_gamma    88.39000425637651

_space_group_name_H-M_alt    "P 1"
_space_group_IT_number       1

loop_
  _space_group_symop_operation_xyz
  'x, y, z'

loop_
  _atom_site_type_symbol
  _atom_site_label
  _atom_site_symmetry_multiplicity
  _atom_site_fract_x
  _atom_site_fract_y
  _atom_site_fract_z
  _atom_site_occupancy
  N   N1        1.0  0.7120684234072433  0.37411182492324363  0.3985035530164974  1.0000
  C   C1        1.0  0.6515164866172928  0.3388318011136145  0.3862676693595748  1.0000
  C   C2        1.0  0.576196532518551  0.29494733657763983  0.37104755864850086  1.0000
  C   C3        1.0  0.5584440790514102  0.22259188027403365  0.25450085268649114  1.0000
  C   C4        1.0  0.48531255627553793  0.17987122592221372  0.2396313936566796  1.0000
  C   C5        1.0  0.4288848733071675  0.2091283158170063  0.34127262109310247  1.0000
  C   C6        1.0  0.3511646515738686  0.16384289663122  0.32556133443767465  1.0000
  C   C7        1.0  0.2889045500186936  0.24581184850354232  0.3543519622490434  1.0000
  C   C8        1.0  0.2156306782688244  0.20288834324331972  0.339497688326891  1.0000
  C   C9        1.0  0.1523193116863852  0.287551162108596  0.3686922270971853  1.0000
  N   N2        1.0  0.1014299635934492  0.3556142211818903  0.3921638299096377  1.0000
  C   C10       1.0  0.2040334451107587  0.07773775242857185  0.29582464981799617  1.0000
  C   C11       1.0  0.26543620392858297  0.9957548756023895  0.2670247099535734  1.0000
  C   C12       1.0  0.33859129756342415  0.03828210409780652  0.2816541785895823  1.0000
  C   C13       1.0  0.4473280234748129  0.2819799967739658  0.4580626586456824  1.0000
  C   C14       1.0  0.5205129200688311  0.3245088884779757  0.4727593548460622  1.0000
  H   H1        1.0  0.6010704910239696  0.19945639715543306  0.17490410759630776  1.0000
  H   H2        1.0  0.47266768100229284  0.1254454987045346  0.1475947794861887  1.0000
  H   H3        1.0  0.2973087771441855  0.3435116404660965  0.38640372113462496  1.0000
  H   H4        1.0  0.14760262855351305  0.04361499236473357  0.2840649739314125  1.0000
  H   H5        1.0  0.256337506805109  0.8988639338021736  0.23364056883335713  1.0000
  H   H6        1.0  0.38529363488206597  0.972382561444309  0.26051161108828436  1.0000
  H   H7        1.0  0.4054143133758562  0.3045884563977994  0.539096216931406  1.0000
  H   H8        1.0  0.5336895068976087  0.38014528496070693  0.5636398279128483  1.0000
  C   C15       1.0  0.9067527802715858  0.9836095001143866  0.39533991909312105  1.0000
  C   C16       1.0  0.9504625243302199  0.9881667341019124  0.2677991720690125  1.0000
  C   C17       1.0  0.9720053569094116  0.87346368391552  0.2041790260137626  1.0000
  C   C18       1.0  0.9504624298231811  0.7530155800418352  0.26779909614427044  1.0000
  C   C19       1.0  0.9067527503479665  0.7461063628435943  0.39533991201350205  1.0000
  C   C20       1.0  0.8850921105187938  0.8620219995165749  0.45846001159365757  1.0000
  S   S1        1.0  0.027989127432766596  0.8807716425037595  0.041393036914461945  1.0000
  C   C21       1.0  0.946919170248509  0.8919547204298346  0.9237599071960885  1.0000
  H   H9        1.0  0.8902560738463348  0.30920833499545897  0.44337326428772483  1.0000
  H   H10       1.0  0.9678235743564579  0.08054369396930895  0.21713803336909285  1.0000
  H   H11       1.0  0.9678234088899116  0.665193307429756  0.2171379237413271  1.0000
  H   H12       1.0  0.8513646247110933  0.8576012337602271  0.5568232569032099  1.0000
  H   H13       1.0  0.8902548512449364  0.4161926122241013  0.44337169919034797  1.0000
  H   H14       1.0  0.9123858639851198  0.8042962788287413  0.9435425416369492  1.0000
  H   H15       1.0  0.9123865691050657  0.9805312027396239  0.9435420061924282  1.0000
  H   H16       1.0  0.966649757528265  0.898033312929451  0.8095091384366913  1.0000
  C   C22       1.0  0.9079835634048049  0.36136101089957107  0.9720445176749055  1.0000
  C   C23       1.0  0.9695105506352648  0.41327495024151234  0.03961641838353923  1.0000
  C   C24       1.0  0.026775926140542694  0.47508598027706883  0.958874260823495  1.0000
  C   C25       1.0  0.022719088956911992  0.485298663194812  0.8074997014964729  1.0000
  C   C26       1.0  0.9627705229845824  0.43252362123795113  0.7385599027762967  1.0000
  C   C27       1.0  0.905521945785267  0.3683547915268109  0.8186352383874191  1.0000
  O   O1        1.0  0.08625112800295764  0.525498898852641  0.03311247699369346  1.0000
  C   C28       1.0  0.14811932167611894  0.5908863456463154  0.9650287496914607  1.0000
  H   H17       1.0  0.7292793382531831  0.290110405346675  0.08597146241275032  1.0000
  H   H18       1.0  0.06599827506812783  0.5328190307168791  0.7418728810302202  1.0000
  H   H19       1.0  0.9621643075058115  0.4392436443659373  0.6214885966181048  1.0000
  H   H20       1.0  0.7863499431874126  0.3151837997784355  0.5451329781909249  1.0000
  H   H21       1.0  0.1279519829182112  0.6797010658696365  0.9009615333153275  1.0000
  H   H22       1.0  0.1794456741689905  0.5249640010769754  0.8941060249325274  1.0000
  H   H23       1.0  0.18657801721181166  0.620091844285318  0.04924609975678606  1.0000
  Zn  Zn1       1.0  0.8244297278002594  0.3687704206863729  0.39668238237809406  1.0000
  Zn  Zn2       1.0  0.9890686065468597  0.3609451403486593  0.393996850912776  1.0000
  C   C29       1.0  0.9059855809006094  0.36186082305556116  0.658611510390311  1.0000
  C   C30       1.0  0.9075145508864967  0.36785629181975577  0.13206783505420927  1.0000
  C   C31       1.0  0.9067655870661561  0.601930944393475  0.3895958207329524  1.0000
  C   C32       1.0  0.9067344883178234  0.12778461395690766  0.4010836024785729  1.0000
  O   O2        1.0  0.9698367424627335  0.3670608502998176  0.18475397700287738  1.0000
  O   O3        1.0  0.9686204900152694  0.3567160750101167  0.6038866972530599  1.0000
  O   O4        1.0  0.9692495082455131  0.5505757865060363  0.3866546382627649  1.0000
  O   O5        1.0  0.969207668366652  0.1732011498686803  0.4019859288298395  1.0000
  O   O6        1.0  0.8442906097973202  0.5565144138380868  0.3886933053698883  1.0000
  O   O7        1.0  0.8436615917870559  0.36265626153883623  0.605925287502036  1.0000
  O   O8        1.0  0.8448778493236336  0.37300097726683834  0.1867908341950477  1.0000
  O   O9        1.0  0.8442487749102427  0.17914126844265366  0.40402289409420056  1.0000
