data_image0
_chemical_formula_structural       NC8NC6H8C7F3H5C6NH7Zn2C4O8
_chemical_formula_sum              "N3 C31 H20 F3 Zn2 O8"
_cell_length_a       17.457602349358154
_cell_length_b       9.27228830945605
_cell_length_c       9.274774538082514
_cell_angle_alpha    84.76856818496036
_cell_angle_beta     93.23827242343725
_cell_angle_gamma    91.12935064675003

_space_group_name_H-M_alt    "P 1"
_space_group_IT_number       1

loop_
  _space_group_symop_operation_xyz
  'x, y, z'

loop_
  _atom_site_type_symbol
  _atom_site_label
  _atom_site_symmetry_multiplicity
  _atom_site_fract_x
  _atom_site_fract_y
  _atom_site_fract_z
  _atom_site_occupancy
  N   N1        1.0  0.7087663853825513  0.6272785365995279  0.46387473320851513  1.0000
  C   C1        1.0  0.6479223284932334  0.5763526437939535  0.4523651824998542  1.0000
  C   C2        1.0  0.5722297396968395  0.5130070915877714  0.4380578727733162  1.0000
  C   C3        1.0  0.5137368817532252  0.5569182522780056  0.5210653917451997  1.0000
  C   C4        1.0  0.4394720454028497  0.4959204283855949  0.5074276851097941  1.0000
  C   C5        1.0  0.3773911627131183  0.5422818787243515  0.595336608696325  1.0000
  C   C6        1.0  0.30253059265110077  0.5633320035639551  0.5332277503613811  1.0000
  C   C7        1.0  0.24403921956888325  0.6070377810714929  0.6163564485626121  1.0000
  C   C8        1.0  0.1677287823605581  0.6287821232125772  0.5517808437959526  1.0000
  N   N2        1.0  0.10638814579510138  0.6462574844721629  0.4998622660168268  1.0000
  C   C9        1.0  0.25991667213583125  0.6299587499612502  0.7621577721136565  1.0000
  C   C10       1.0  0.3339916474511889  0.609337137382578  0.8246950462902545  1.0000
  C   C11       1.0  0.39247202255451485  0.5658270638327996  0.7420740464267465  1.0000
  C   C12       1.0  0.42498748834477323  0.39027239642684997  0.40919380695168606  1.0000
  C   C13       1.0  0.48346843795747924  0.34666706994551943  0.32662919538110957  1.0000
  C   C14       1.0  0.556949855304875  0.40778452414528815  0.34087755949241316  1.0000
  H   H1        1.0  0.5258783559271277  0.6398320723971316  0.5946600482984383  1.0000
  H   H2        1.0  0.2899008602586085  0.5476687336700397  0.419903682832702  1.0000
  H   H3        1.0  0.21508775753536022  0.6637127623051435  0.8273685233159415  1.0000
  H   H4        1.0  0.34609705076227965  0.6267346491886303  0.9375942681968504  1.0000
  H   H5        1.0  0.4492155287189254  0.5487315386462148  0.7934251996708375  1.0000
  H   H6        1.0  0.3687330751217308  0.3400020184517907  0.39764035894854555  1.0000
  H   H7        1.0  0.4718297542456913  0.26500512640697327  0.2516952880848131  1.0000
  H   H8        1.0  0.6017858509006886  0.3730593439819845  0.27624054466529424  1.0000
  C   C15       1.0  0.909845943013632  0.21303228405637742  0.4842982411715124  1.0000
  C   C16       1.0  0.9459240653673292  0.29775694467826974  0.3735642335350322  1.0000
  C   C17       1.0  0.9744086906067017  0.23453706228806162  0.2571108026882287  1.0000
  C   C18       1.0  0.9665205129047146  0.08503621427113116  0.24717112939686792  1.0000
  C   C19       1.0  0.9332471646751168  0.9987469746293768  0.3599961582319511  1.0000
  C   C20       1.0  0.9053160403291881  0.060492863864377355  0.47945199654537246  1.0000
  C   C21       1.0  0.9992656115686777  0.016162154552847866  0.12335702450606068  1.0000
  F   F1        1.0  0.9981937420171147  0.11178787808682247  0.9996191231126822  1.0000
  F   F2        1.0  0.9569260282283422  0.8940277827592682  0.09201211456670233  1.0000
  F   F3        1.0  0.07418546916704077  0.976908605831881  0.16139336779950808  1.0000
  H   H9        1.0  0.7817110530957981  0.2872316896432596  0.7323130027065335  1.0000
  H   H10       1.0  0.950768504519381  0.4142394358846957  0.3754961575428401  1.0000
  H   H11       1.0  0.002081933940753177  0.30308120590572685  0.17396842667485155  1.0000
  H   H12       1.0  0.9307849094321659  0.8822189028728187  0.3565278711097781  1.0000
  H   H13       1.0  0.8707362330386543  0.9261104687942442  0.8258653906259537  1.0000
  C   C22       1.0  0.9061843217847598  0.6403874369336671  0.05791306430867005  1.0000
  C   C23       1.0  0.9600946244590091  0.7281344125502976  0.1290830749714409  1.0000
  C   C24       1.0  0.017510553343219826  0.8041593894161668  0.05313116512314031  1.0000
  C   C25       1.0  0.021482593036329822  0.7927920245210909  0.9045737298843468  1.0000
  C   C26       1.0  0.967801454317616  0.7082355036186937  0.8317052577071262  1.0000
  C   C27       1.0  0.9089776353292613  0.6331376525518131  0.9058371441243742  1.0000
  N   N3        1.0  0.07230273109711675  0.8917476588971196  0.12738728760130202  1.0000
  H   H14       1.0  0.793007811748766  0.3528392765540478  0.17506672260395037  1.0000
  H   H15       1.0  0.9586769660951329  0.7349120772574165  0.2449390716546289  1.0000
  H   H16       1.0  0.06581636686935988  0.8506727039437324  0.8447636304338472  1.0000
  H   H17       1.0  0.9712442015983463  0.7043850311242417  0.7158648119082976  1.0000
  H   H18       1.0  0.8303694445716041  0.44374418454140735  0.6336123249946755  1.0000
  H   H19       1.0  0.07002636780595738  0.900690091596084  0.23850381534731224  1.0000
  H   H20       1.0  0.1155351579521411  0.9484407596110791  0.07177213330851127  1.0000
  Zn  Zn1       1.0  0.8235114845123743  0.6327515101138144  0.4742683158659153  1.0000
  Zn  Zn2       1.0  0.991643134592641  0.6407725791927446  0.4894805710338512  1.0000
  C   C28       1.0  0.908478658913499  0.6287595354586691  0.7455940568812068  1.0000
  C   C29       1.0  0.9066777869187815  0.6447664608827341  0.21815512742686516  1.0000
  C   C30       1.0  0.9061493706503515  0.9003537598890841  0.4746145013787734  1.0000
  C   C31       1.0  0.90900702733072  0.373170499417978  0.48913476462390815  1.0000
  O   O1        1.0  0.9706485169550654  0.649273760078104  0.27770683519491585  1.0000
  O   O2        1.0  0.9721159654361384  0.630338957091156  0.6975876894240507  1.0000
  O   O3        1.0  0.9702341805281144  0.8496546742272911  0.4787696947269984  1.0000
  O   O4        1.0  0.9725302440793626  0.4299580514527459  0.4965247163920852  1.0000
  O   O5        1.0  0.842624317650539  0.8435660351182516  0.46722416530888267  1.0000
  O   O6        1.0  0.8445060930346581  0.6242520522808956  0.6860420731125263  1.0000
  O   O7        1.0  0.8430386391551872  0.6431868198277069  0.2661594833900851  1.0000
  O   O8        1.0  0.8449203666880974  0.42387109995600974  0.4849774728883385  1.0000
