data_image0
_chemical_formula_structural       NC10NC5H10C12NCOCH13C12SCH12Zn2C4O8
_chemical_formula_sum              "N3 C46 H35 O9 S1 Zn2"
_cell_length_a       19.4436361288709
_cell_length_b       10.299155265289647
_cell_length_c       10.299780138516091
_cell_angle_alpha    85.56043235920357
_cell_angle_beta     89.6968932683751
_cell_angle_gamma    89.39615277754326

_space_group_name_H-M_alt    "P 1"
_space_group_IT_number       1

loop_
  _space_group_symop_operation_xyz
  'x, y, z'

loop_
  _atom_site_type_symbol
  _atom_site_label
  _atom_site_symmetry_multiplicity
  _atom_site_fract_x
  _atom_site_fract_y
  _atom_site_fract_z
  _atom_site_occupancy
  N   N1        1.0  0.6474636514121365  0.4090087896088923  0.5617780657143296  1.0000
  C   C1        1.0  0.5886255044887702  0.41891294662194106  0.5761588068082313  1.0000
  C   C2        1.0  0.515293461768078  0.431264763771382  0.5941470888700437  1.0000
  C   C3        1.0  0.47311748426127753  0.39925545090777503  0.499485796631439  1.0000
  C   C4        1.0  0.397210593948476  0.40969507502383284  0.504810874363375  1.0000
  C   C5        1.0  0.35747480197596043  0.38495669814008665  0.6118854606620735  1.0000
  C   C6        1.0  0.2813536445402652  0.3888722327212573  0.5989255755465455  1.0000
  C   C7        1.0  0.24077743873037813  0.44654774414946863  0.6926770205960884  1.0000
  C   C8        1.0  0.1691134522624582  0.4501846486191451  0.6821325880447183  1.0000
  C   C9        1.0  0.1370309930410751  0.39575003138403375  0.5781233306256711  1.0000
  C   C10       1.0  0.063237751664791  0.3994481671816923  0.5674236062017699  1.0000
  N   N2        1.0  0.003912990695816799  0.4024212743240774  0.558821737130492  1.0000
  C   C11       1.0  0.1768824475010577  0.33736741789032343  0.48475529283413976  1.0000
  C   C12       1.0  0.2485628780737169  0.33367625878961604  0.4950479728114871  1.0000
  C   C13       1.0  0.3856138863960621  0.34450682103757635  0.7429854312798632  1.0000
  C   C14       1.0  0.44426785306157524  0.38763686402090947  0.7902144987283412  1.0000
  C   C15       1.0  0.48845628950887576  0.4854943869153386  0.7158241104627473  1.0000
  H   H1        1.0  0.4952239281040527  0.3701266674041608  0.40919046478465  1.0000
  H   H2        1.0  0.37250901265863473  0.43218154261216146  0.4116503956288619  1.0000
  H   H3        1.0  0.26463769094054157  0.4898503570087623  0.7735104816491344  1.0000
  H   H4        1.0  0.1387581472158742  0.4955102986646541  0.7550383734346926  1.0000
  H   H5        1.0  0.15255026715457  0.2942605122361299  0.40425624884440947  1.0000
  H   H6        1.0  0.2782530176551073  0.2861071283793329  0.42283908841806106  1.0000
  H   H7        1.0  0.3546606175558591  0.2802918287429985  0.8072467642678016  1.0000
  H   H8        1.0  0.4594232422647353  0.3535774847813309  0.8881539442406  1.0000
  H   H9        1.0  0.4583290130959117  0.5762126363741946  0.6905491142367501  1.0000
  H   H10       1.0  0.5317351106487878  0.5110889213403642  0.7788996717123744  1.0000
  C   C16       1.0  0.8257684211952078  0.024316102449296603  0.5604179611115523  1.0000
  C   C17       1.0  0.8140292742358928  0.0342064661350836  0.4255967643471579  1.0000
  C   C18       1.0  0.8080106757234932  0.9220846132916024  0.35712241175508064  1.0000
  C   C19       1.0  0.8138648425188648  0.7989496745543533  0.4252903584002283  1.0000
  C   C20       1.0  0.8256148225971289  0.787103892982476  0.5601930518753238  1.0000
  C   C21       1.0  0.8314973346053981  0.9003054602294447  0.62692631047861  1.0000
  C   C22       1.0  0.7955929247734135  0.9335210774542656  0.21449785810929395  1.0000
  C   C23       1.0  0.83047980828635  0.02697114358775132  0.13279492023198625  1.0000
  C   C24       1.0  0.8187995458658669  0.03760262795648649  0.9985756644489698  1.0000
  C   C25       1.0  0.7724265280489825  0.9541062932516874  0.9432124460136735  1.0000
  C   C26       1.0  0.7366995154026651  0.8624880255560498  0.024854195559902648  1.0000
  C   C27       1.0  0.7484048309994831  0.8516000513772343  0.15903590992829164  1.0000
  N   N3        1.0  0.7585331192150806  0.964576844725649  0.8057733763349488  1.0000
  C   C28       1.0  0.8087607215036433  0.0005656780690097669  0.7071439016302196  1.0000
  O   O1        1.0  0.8718559256465968  0.0019394460424069148  0.7344776565579689  1.0000
  C   C29       1.0  0.7868288567827567  0.027390336560406462  0.5687927158518606  1.0000
  H   H11       1.0  0.8303051486428612  0.3479876367240454  0.6122700892127173  1.0000
  H   H12       1.0  0.8085913622783284  0.129341806741053  0.3738347725938955  1.0000
  H   H13       1.0  0.8101688202003202  0.712208482886708  0.37269514909819346  1.0000
  H   H14       1.0  0.8405542994101993  0.8919619080511312  0.7309162523458486  1.0000
  H   H15       1.0  0.8482041517115793  0.5574546454171638  0.8146806014222684  1.0000
  H   H16       1.0  0.8672038323911974  0.091348750172092  0.17258069199719148  1.0000
  H   H17       1.0  0.845189728614235  0.11255875652466978  0.938779285767126  1.0000
  H   H18       1.0  0.6999095483031911  0.798815516358813  0.9842019773763702  1.0000
  H   H19       1.0  0.7198045236851847  0.7803012809353349  0.21968352520286033  1.0000
  H   H20       1.0  0.7100920594296946  0.9365973515101232  0.7751032153005599  1.0000
  H   H21       1.0  0.7371807779310332  0.08175266571820838  0.5647510608106612  1.0000
  H   H22       1.0  0.7804676472306761  0.933889313525243  0.5236236275210259  1.0000
  H   H23       1.0  0.8259873892599918  0.08674695888328256  0.513075379926248  1.0000
  C   C30       1.0  0.8257192778183722  0.40559815710840685  0.17895319907482277  1.0000
  C   C31       1.0  0.7603346811186348  0.34879065171581064  0.18300709835304496  1.0000
  C   C32       1.0  0.7271765529484061  0.32012061477648573  0.06791451668998393  1.0000
  C   C33       1.0  0.7602783268651416  0.34901714897592934  0.9477036023971737  1.0000
  C   C34       1.0  0.8256639496467405  0.405821811712271  0.9416578571490981  1.0000
  C   C35       1.0  0.8580182533488979  0.4337950060172603  0.05780878784930032  1.0000
  C   C36       1.0  0.6580041866428155  0.2600380818478163  0.07326601480402582  1.0000
  C   C37       1.0  0.607057446113996  0.30264371078220487  0.9827197233475319  1.0000
  C   C38       1.0  0.5419674976299044  0.24606365102398156  0.9879929454804536  1.0000
  C   C39       1.0  0.5268748520993582  0.14652532704824583  0.08371044424562601  1.0000
  C   C40       1.0  0.5772096290242149  0.10313201530588967  0.1738563975846119  1.0000
  C   C41       1.0  0.6423421635754355  0.15953784525195494  0.1689452816014225  1.0000
  S   S1        1.0  0.44338373904276457  0.07379159840858264  0.090026300987881  1.0000
  C   C42       1.0  0.4080895412727554  0.18866763562538558  0.1990141117002142  1.0000
  H   H24       1.0  0.850643841701808  0.4271967061834798  0.5048654181369032  1.0000
  H   H25       1.0  0.7346347324066121  0.32834173265475025  0.2757757963892369  1.0000
  H   H26       1.0  0.735341935236634  0.32547480453677624  0.85884532491515  1.0000
  H   H27       1.0  0.9084598465318343  0.4776187917018937  0.053913003957352545  1.0000
  H   H28       1.0  0.8505636176869614  0.42752567706742167  0.6118964176462719  1.0000
  H   H29       1.0  0.6172691041914833  0.38082864714532844  0.9089335381040818  1.0000
  H   H30       1.0  0.5032076181387668  0.28011573036875675  0.9179732201553569  1.0000
  H   H31       1.0  0.5659466060563331  0.025662535770153865  0.24777596072084296  1.0000
  H   H32       1.0  0.6807324049926126  0.12344145585862722  0.2388678656327876  1.0000
  H   H33       1.0  0.43717464368541137  0.1820995618589221  0.2917887870923743  1.0000
  H   H34       1.0  0.35351299125277263  0.16454563439139935  0.2202465513770082  1.0000
  H   H35       1.0  0.4107278639446796  0.289348396056462  0.15237107094558922  1.0000
  Zn  Zn1       1.0  0.7503272324210095  0.4071043055564121  0.5609324459810627  1.0000
  Zn  Zn2       1.0  0.9010494025637125  0.40431515299217424  0.5596780407063973  1.0000
  C   C43       1.0  0.8256739086875914  0.4006054737486617  0.7974918611057393  1.0000
  C   C44       1.0  0.8257043718392579  0.41081559312813215  0.3231187388614034  1.0000
  C   C45       1.0  0.8256406721708873  0.6429192841219848  0.5550606603572796  1.0000
  C   C46       1.0  0.8257375572342593  0.16850022330171743  0.5655500097335822  1.0000
  O   O2        1.0  0.8828976484716085  0.41150247726943695  0.3710259723884676  1.0000
  O   O3        1.0  0.8828752719443802  0.3978007074386234  0.7486321894592785  1.0000
  O   O4        1.0  0.8828476618786933  0.5934721884560883  0.5528672856331163  1.0000
  O   O5        1.0  0.8829252071112214  0.21583100646612063  0.5667907792695048  1.0000
  O   O6        1.0  0.7684513764394212  0.5955884530356785  0.5538197078391905  1.0000
  O   O7        1.0  0.7684789861927313  0.3999185324245176  0.7495845419628706  1.0000
  O   O8        1.0  0.7685013628880958  0.41362025653713586  0.37197676357229814  1.0000
  O   O9        1.0  0.7685289215197031  0.21794877647288402  0.5677416678196965  1.0000
