data_image0
_chemical_formula_structural       NC8NC6H8C7H8C6FH3Zn2C4O8
_chemical_formula_sum              "N2 C31 H19 F1 Zn2 O8"
_cell_length_a       17.457602349358154
_cell_length_b       9.274341958901593
_cell_length_c       9.275646106892307
_cell_angle_alpha    84.9204318453296
_cell_angle_beta     92.91404810424501
_cell_angle_gamma    91.07026823974832

_space_group_name_H-M_alt    "P 1"
_space_group_IT_number       1

loop_
  _space_group_symop_operation_xyz
  'x, y, z'

loop_
  _atom_site_type_symbol
  _atom_site_label
  _atom_site_symmetry_multiplicity
  _atom_site_fract_x
  _atom_site_fract_y
  _atom_site_fract_z
  _atom_site_occupancy
  N   N1        1.0  0.7127200721860516  0.6294217756462595  0.4717357238771857  1.0000
  C   C1        1.0  0.6519325872545434  0.5785534255066281  0.4599930640367133  1.0000
  C   C2        1.0  0.5763103393116925  0.5152794301538776  0.4453957932149543  1.0000
  C   C3        1.0  0.5175475448304553  0.5589881227298439  0.5285884870594895  1.0000
  C   C4        1.0  0.4433500206815491  0.4980589122035263  0.5146715357656875  1.0000
  C   C5        1.0  0.3809833231857705  0.5442060328474063  0.6027759088258208  1.0000
  C   C6        1.0  0.3063017129203764  0.565372221403448  0.5407778844318454  1.0000
  C   C7        1.0  0.24754012428988412  0.6088754123410782  0.6240907810907674  1.0000
  C   C8        1.0  0.17141581508533832  0.6307405210535812  0.5596297560915326  1.0000
  N   N2        1.0  0.11022482783114433  0.6483129828603647  0.5078032676002384  1.0000
  C   C9        1.0  0.26296658222253805  0.6314763774650132  0.7699665745321889  1.0000
  C   C10       1.0  0.33686111836009913  0.6107375235135477  0.8323949044523624  1.0000
  C   C11       1.0  0.39561008911255735  0.5674288460724609  0.749590501594362  1.0000
  C   C12       1.0  0.4292078353126074  0.392685770079253  0.4159701629744992  1.0000
  C   C13       1.0  0.48795725060675194  0.34928178437670976  0.3332216955255609  1.0000
  C   C14       1.0  0.5613694567694478  0.4103292694122593  0.3477497255206894  1.0000
  H   H1        1.0  0.5294309143534486  0.6416935271505615  0.6025507968679644  1.0000
  H   H2        1.0  0.2940215972471925  0.5499562599869393  0.42740589134298923  1.0000
  H   H3        1.0  0.21792592239769049  0.6650718188328519  0.8353193635935701  1.0000
  H   H4        1.0  0.3486174501341092  0.6278874755722132  0.9453501671326938  1.0000
  H   H5        1.0  0.4522055008731693  0.5502371574446396  0.8008514456732536  1.0000
  H   H6        1.0  0.3730098470104477  0.3424725957461723  0.4041866479898206  1.0000
  H   H7        1.0  0.4765801897510639  0.267830234749538  0.2579262165918638  1.0000
  H   H8        1.0  0.6064158760530214  0.3757620985678489  0.2829660556338362  1.0000
  C   C15       1.0  0.9139146901935155  0.21540506922261946  0.49023835877658545  1.0000
  C   C16       1.0  0.9229454459653599  0.30058680219375405  0.3589030990562738  1.0000
  C   C17       1.0  0.9243457330064386  0.23709189834965302  0.228276560812819  1.0000
  C   C18       1.0  0.9159071094840142  0.0870791533448172  0.22576777219946553  1.0000
  C   C19       1.0  0.9092653773951008  0.00041445571041466057  0.35625181008358253  1.0000
  C   C20       1.0  0.9090375891456097  0.06231875830542366  0.4893138242035915  1.0000
  C   C21       1.0  0.91910951054513  0.018736589031282946  0.08554709803635085  1.0000
  H   H9        1.0  0.85018373786439  0.2869721025748633  0.8188539744411171  1.0000
  H   H10       1.0  0.9272917616708554  0.41742751789009414  0.3568166005292148  1.0000
  H   H11       1.0  0.9312027303230134  0.30536140226746555  0.12869415453423594  1.0000
  H   H12       1.0  0.9060220762429457  0.8837760086542902  0.35411487920633156  1.0000
  H   H13       1.0  0.8691814285102524  0.7604126290308912  0.7127232197573499  1.0000
  H   H14       1.0  0.9794214405262015  0.9923077352545153  0.0673767422288174  1.0000
  H   H15       1.0  0.8967183234145396  0.09344916292238326  0.9934428507545374  1.0000
  H   H16       1.0  0.8837242039677281  0.9178214135409081  0.08810967633379718  1.0000
  C   C22       1.0  0.9113608897016962  0.6433711168170213  0.06592260517820425  1.0000
  C   C23       1.0  0.9815039821560941  0.6617801835272135  0.14433930510796933  1.0000
  C   C24       1.0  0.05077431219514763  0.666603916408145  0.07517785139592692  1.0000
  C   C25       1.0  0.051118925256523624  0.65295856458365  0.9268406390905637  1.0000
  C   C26       1.0  0.9821639136956533  0.6370110058705496  0.8465984120003629  1.0000
  C   C27       1.0  0.9115913779041352  0.6343527476377506  0.9136295393320562  1.0000
  F   F1        1.0  0.11786899957768293  0.6828152248463585  0.15269348384159787  1.0000
  H   H17       1.0  0.7341795029476955  0.5177638810244558  0.1630656607842329  1.0000
  H   H18       1.0  0.10490210457992638  0.6561180096204398  0.8734049440151481  1.0000
  H   H19       1.0  0.7916027355928091  0.5556866915427425  0.6279381474086864  1.0000
  Zn  Zn1       1.0  0.8274313826577183  0.634869414211281  0.48215237591457405  1.0000
  Zn  Zn2       1.0  0.9955135744079309  0.6428533955095912  0.49739844546261586  1.0000
  C   C28       1.0  0.9115792043612678  0.6303125936513563  0.753400897883394  1.0000
  C   C29       1.0  0.9113675777174473  0.6474121212289508  0.22615022966032505  1.0000
  C   C30       1.0  0.9099539675304908  0.9022950597140866  0.483736509793512  1.0000
  C   C31       1.0  0.9129927671914317  0.3754279191026746  0.495814691390988  1.0000
  O   O1        1.0  0.9751561743063758  0.6517919074225198  0.28570989493979687  1.0000
  O   O2        1.0  0.9753611083051907  0.6319913810876162  0.7054122323159141  1.0000
  O   O3        1.0  0.9740478495484841  0.8516206053102913  0.4876562513796345  1.0000
  O   O4        1.0  0.9764693756191829  0.4321626919424102  0.5034657624401442  1.0000
  O   O5        1.0  0.8464755240882529  0.845560115055571  0.4760850537267167  1.0000
  O   O6        1.0  0.847788772843537  0.6259326241735522  0.693840955811887  1.0000
  O   O7        1.0  0.847583838713221  0.6457331187213439  0.27413688315429496  1.0000
  O   O8        1.0  0.8488970401117134  0.42610389177577845  0.49189285888024603  1.0000
