data_image0
_chemical_formula_structural       NC10NC3NH7C12NCOCH13C13NH13Zn2C4O8
_chemical_formula_sum              "N5 C44 H33 O9 Zn2"
_cell_length_a       19.210446455230148
_cell_length_b       10.299155265289647
_cell_length_c       10.299780419254978
_cell_angle_alpha    85.55647119552991
_cell_angle_beta     89.97732542180437
_cell_angle_gamma    89.9251083167036

_space_group_name_H-M_alt    "P 1"
_space_group_IT_number       1

loop_
  _space_group_symop_operation_xyz
  'x, y, z'

loop_
  _atom_site_type_symbol
  _atom_site_label
  _atom_site_symmetry_multiplicity
  _atom_site_fract_x
  _atom_site_fract_y
  _atom_site_fract_z
  _atom_site_occupancy
  N   N1        1.0  0.6553535464414949  0.4199855754613684  0.5670269098408345  1.0000
  C   C1        1.0  0.5951243392218613  0.42219326695835524  0.5672574983230385  1.0000
  C   C2        1.0  0.520319084030505  0.4249304001002741  0.5675431681624723  1.0000
  C   C3        1.0  0.4846731888987999  0.5411707553718017  0.5826253533414956  1.0000
  C   C4        1.0  0.4120076710292775  0.5413222910974125  0.5825727205203353  1.0000
  C   C5        1.0  0.3751521162776231  0.42563942588618886  0.5676294710181569  1.0000
  C   C6        1.0  0.2978303949924328  0.4242828402420267  0.5674792233497254  1.0000
  C   C7        1.0  0.2600528131846382  0.5278470046227794  0.5040944156802323  1.0000
  C   C8        1.0  0.1872748747120131  0.5264446693344726  0.5039856953448696  1.0000
  C   C9        1.0  0.1512730378189489  0.4217356845717411  0.567210723963997  1.0000
  C   C10       1.0  0.076343908629065  0.4204334988928242  0.5670742254390451  1.0000
  N   N2        1.0  0.0161063705756076  0.41938649740248307  0.5669645155103629  1.0000
  C   C11       1.0  0.1883269283652841  0.31829721519024345  0.630570492961475  1.0000
  C   C12       1.0  0.261106789909685  0.3194252761807088  0.63072952525585  1.0000
  C   C13       1.0  0.4134073169731227  0.31121949080590827  0.5528349845383653  1.0000
  N   N3        1.0  0.48417653932506927  0.3136646424467777  0.5529999311815805  1.0000
  H   H1        1.0  0.5127470115630408  0.6306120065719318  0.5946509800143748  1.0000
  H   H2        1.0  0.3847113651135991  0.6313457151353685  0.5959928645486239  1.0000
  H   H3        1.0  0.286761591964066  0.6090951555676587  0.4530857848550165  1.0000
  H   H4        1.0  0.1591100674733262  0.6068653271687934  0.45430760580122764  1.0000
  H   H5        1.0  0.160978693428847  0.2369130841954845  0.6801493421549554  1.0000
  H   H6        1.0  0.2886265455227075  0.23912409287095218  0.6818452483651551  1.0000
  H   H7        1.0  0.3871696840601771  0.22033308601641743  0.5393688104304275  1.0000
  C   C14       1.0  0.8358110159927653  0.03828845703882133  0.567114400637508  1.0000
  C   C15       1.0  0.8239370091216922  0.047990939145226  0.4321971737634295  1.0000
  C   C16       1.0  0.8178492356676724  0.9357727155686947  0.3636735905185775  1.0000
  C   C17       1.0  0.8237706078598225  0.8127314063648188  0.4318894312006205  1.0000
  C   C18       1.0  0.8356555744863406  0.8010736827242885  0.566888243173578  1.0000
  C   C19       1.0  0.8416057071387704  0.9143694550142388  0.6336696182408033  1.0000
  C   C20       1.0  0.805288829465795  0.9470104379710672  0.2209474555053679  1.0000
  C   C21       1.0  0.8406010535556122  0.04105225077784369  0.13952731526735684  1.0000
  C   C22       1.0  0.8287866114763609  0.0514968011426249  0.005212510670776552  1.0000
  C   C23       1.0  0.781856562026446  0.9672252441420075  0.9494725065725187  1.0000
  C   C24       1.0  0.7456940692418549  0.875001120054061  0.030824637395804103  1.0000
  C   C25       1.0  0.757533868869701  0.8643005033649922  0.16510210377548187  1.0000
  N   N4        1.0  0.7678024186766952  0.977471904211483  0.8119199029323658  1.0000
  C   C26       1.0  0.8186414281029009  0.014311376135873974  0.7136976817045348  1.0000
  O   O1        1.0  0.8824969738337689  0.016743235222554494  0.7415438342681875  1.0000
  C   C27       1.0  0.7964518289625263  0.04077716235924433  0.5751676952687418  1.0000
  H   H8        1.0  0.8403998743760059  0.3620326176762851  0.6190036393242634  1.0000
  H   H9        1.0  0.8184360818560955  0.1430385074791778  0.3803907554628023  1.0000
  H   H10       1.0  0.820032642067698  0.7259317634061723  0.3792639327568977  1.0000
  H   H11       1.0  0.8507667201891044  0.9061708587552599  0.7377336489342674  1.0000
  H   H12       1.0  0.8585046627258108  0.5717863130406896  0.8215605543746212  1.0000
  H   H13       1.0  0.8777664123921602  0.10604405738808764  0.17961145182727267  1.0000
  H   H14       1.0  0.8554984408796479  0.12690041748508585  0.9456300650356928  1.0000
  H   H15       1.0  0.7084620154090847  0.8107133629858101  0.989873514396507  1.0000
  H   H16       1.0  0.7285851892611992  0.7925170566932606  0.22551784723603113  1.0000
  H   H17       1.0  0.7187781031195163  0.948680736729376  0.7808562989397743  1.0000
  H   H18       1.0  0.7462045665852367  0.09430569626173502  0.5707229407461054  1.0000
  H   H19       1.0  0.7900161216968776  0.9471723994900375  0.5299467197961496  1.0000
  H   H20       1.0  0.8360859496332728  0.10079549509549991  0.519767976663958  1.0000
  C   C28       1.0  0.8357807003523278  0.41959609326395264  0.18564719250442585  1.0000
  C   C29       1.0  0.886158719578852  0.5185489986702387  0.17694754558280448  1.0000
  C   C30       1.0  0.9116319687503288  0.5687846008111777  0.05539542651225471  1.0000
  C   C31       1.0  0.8860630808081479  0.5187214030121012  0.9416473351861612  1.0000
  C   C32       1.0  0.8356858890492589  0.41976597669784255  0.9483554293593084  1.0000
  C   C33       1.0  0.8108248818333329  0.370760873624729  0.07080949958614458  1.0000
  C   C34       1.0  0.9649299349879119  0.6734656987276845  0.04728352394900127  1.0000
  C   C35       1.0  0.9602030240015911  0.778059026453571  0.9514270345039321  1.0000
  C   C36       1.0  0.010390867430457805  0.8764996674192602  0.9438776239110341  1.0000
  C   C37       1.0  0.06587955755749421  0.8727041540862854  0.03254359711225031  1.0000
  C   C38       1.0  0.07127382644393322  0.7678308599431618  0.12734328130034633  1.0000
  C   C39       1.0  0.02110038080125487  0.6693654942427465  0.13506546739775604  1.0000
  C   C40       1.0  0.12082658674985503  0.9768384687436354  0.02204775200302688  1.0000
  N   N5        1.0  0.174195532008256  0.9440954808231686  0.9291703244484718  1.0000
  H   H21       1.0  0.8166126154023678  0.38184348976427085  0.516418993040238  1.0000
  H   H22       1.0  0.9050197263677974  0.5580264907797932  0.2648024491215979  1.0000
  H   H23       1.0  0.9062347973210305  0.5558456736296555  0.8478253312979005  1.0000
  H   H24       1.0  0.7719607660680402  0.2944221659355324  0.0767523172504263  1.0000
  H   H25       1.0  0.8164766568573778  0.382082441509713  0.6234562067109217  1.0000
  H   H26       1.0  0.9172714840176649  0.7844772037325564  0.8831308735386628  1.0000
  H   H27       1.0  0.005891342177900771  0.9559131625222961  0.8690155969861579  1.0000
  H   H28       1.0  0.11446371358028817  0.7620645616144794  0.1951126797884111  1.0000
  H   H29       1.0  0.026813329135060737  0.5889327503309192  0.20846169850514262  1.0000
  H   H30       1.0  0.09675498557912676  0.07191203207718021  0.9887432034572237  1.0000
  H   H31       1.0  0.14482967778516787  0.9881097938381093  0.11889693087201138  1.0000
  H   H32       1.0  0.20930641339374836  0.021734439928681407  0.9192017012110236  1.0000
  H   H33       1.0  0.20213842894788983  0.8637397243871161  0.9699617733773241  1.0000
  Zn  Zn1       1.0  0.7594590177307936  0.41980923183106067  0.5670164039885491  1.0000
  Zn  Zn2       1.0  0.9120008841809507  0.41955226005901625  0.5669856598653791  1.0000
  C   C41       1.0  0.8357032926150513  0.4145598289473756  0.8041888055611598  1.0000
  C   C42       1.0  0.8357582746992864  0.4248032989077551  0.32981338493271967  1.0000
  C   C43       1.0  0.8356819974347273  0.6568898634233883  0.5617560339776508  1.0000
  C   C44       1.0  0.8357795181371581  0.1824717041149644  0.5722462262252823  1.0000
  O   O2        1.0  0.8936395929393177  0.4264476990745663  0.3781852105314074  1.0000
  O   O3        1.0  0.8935977216783382  0.4127194132720595  0.7557932723432865  1.0000
  O   O4        1.0  0.8935797450137167  0.6084039824084482  0.5600270937944369  1.0000
  O   O5        1.0  0.8936575175619463  0.23076313929509285  0.5739512917170992  1.0000
  O   O6        1.0  0.7778023322947458  0.6085983526840888  0.5600507721404889  1.0000
  O   O7        1.0  0.7778203086467679  0.4129153439535822  0.7558168809839463  1.0000
  O   O8        1.0  0.7778621801574032  0.42664358414880144  0.37820725784529197  1.0000
  O   O9        1.0  0.7778801047669724  0.2309590151015173  0.5739734363978023  1.0000
