data_image0
_chemical_formula_structural       NC11NC3H8C12SCH12C12ClH8Zn2C4O8
_chemical_formula_sum              "N2 C43 H28 S1 Cl1 Zn2 O8"
_cell_length_a       17.807433833752565
_cell_length_b       10.299776766347529
_cell_length_c       10.299771906710086
_cell_angle_alpha    85.54586025256013
_cell_angle_beta     88.53397753802528
_cell_angle_gamma    90.66624570658541

_space_group_name_H-M_alt    "P 1"
_space_group_IT_number       1

loop_
  _space_group_symop_operation_xyz
  'x, y, z'

loop_
  _atom_site_type_symbol
  _atom_site_label
  _atom_site_symmetry_multiplicity
  _atom_site_fract_x
  _atom_site_fract_y
  _atom_site_fract_z
  _atom_site_occupancy
  N   N1        1.0  0.7070064953038536  0.43886063912697115  0.5347286696254742  1.0000
  C   C1        1.0  0.6561998020380592  0.4041159446132083  0.601288913079647  1.0000
  C   C2        1.0  0.5929911486507228  0.3608964094298557  0.6840813618532718  1.0000
  C   C3        1.0  0.6047417463144302  0.29731305901430066  0.8067959176408969  1.0000
  C   C4        1.0  0.5434399569427244  0.2557739070909675  0.8873045297767249  1.0000
  C   C5        1.0  0.47023334142859463  0.27750466367985394  0.8457393623696737  1.0000
  C   C6        1.0  0.45750587795225234  0.34124269122195483  0.7225646205583527  1.0000
  C   C7        1.0  0.3797305318079321  0.3643043198267609  0.6782188856065139  1.0000
  C   C8        1.0  0.36093775265071876  0.34746849998454027  0.5486391474257246  1.0000
  C   C9        1.0  0.2877011976049618  0.36916054153756694  0.5070299073464416  1.0000
  C   C10       1.0  0.2323142107817656  0.4080071536035496  0.5941801528490775  1.0000
  C   C11       1.0  0.1569406826621088  0.43035802831645276  0.5512096595409159  1.0000
  N   N2        1.0  0.09634574010161272  0.448326471116985  0.5166645103037475  1.0000
  C   C12       1.0  0.25041533685344497  0.4250536948223222  0.7232287710762193  1.0000
  C   C13       1.0  0.3235991609625771  0.40332665268930934  0.765093436424487  1.0000
  C   C14       1.0  0.5196649816178522  0.3827772737178813  0.6420724238947376  1.0000
  H   H1        1.0  0.6612139410706868  0.27988958861119156  0.840160398358559  1.0000
  H   H2        1.0  0.5526562383308139  0.20629609642879035  0.9820376622817839  1.0000
  H   H3        1.0  0.42360652272744664  0.2429315640338978  0.9091763608417078  1.0000
  H   H4        1.0  0.4026154346197807  0.3158463982894171  0.4799220296486933  1.0000
  H   H5        1.0  0.2742527713914364  0.35530794980062236  0.40699583264568084  1.0000
  H   H6        1.0  0.2080210492779325  0.45545293592489416  0.7914310751232358  1.0000
  H   H7        1.0  0.3365188506999441  0.4187246759174652  0.8649448224452255  1.0000
  H   H8        1.0  0.5111469472910284  0.43361734637889954  0.5475736612844202  1.0000
  C   C15       1.0  0.9017505422253015  0.06223022598537865  0.5256915186845621  1.0000
  C   C16       1.0  0.9062777145587123  0.050739693011362164  0.6619946843168287  1.0000
  C   C17       1.0  0.9084993393438783  0.9277769674503643  0.7310692976996034  1.0000
  C   C18       1.0  0.906134065189167  0.8154484198231527  0.6620165394830344  1.0000
  C   C19       1.0  0.9016088992096715  0.8249470542792439  0.5257125313834268  1.0000
  C   C20       1.0  0.8994420458413483  0.9487771938709975  0.4583130323384126  1.0000
  C   C21       1.0  0.9132802978003874  0.9166849849178043  0.8752630518535536  1.0000
  C   C22       1.0  0.8702913796279538  0.8221583240843233  0.9512999325300899  1.0000
  C   C23       1.0  0.8748133832431827  0.8119544758208674  0.08699875194295882  1.0000
  C   C24       1.0  0.9221371656934133  0.8959936562793241  0.14847603668911535  1.0000
  C   C25       1.0  0.9653054915623513  0.9899505015999351  0.07380388999662535  1.0000
  C   C26       1.0  0.9608936461075565  0.0005069198150669001  0.9380895446145945  1.0000
  S   S1        1.0  0.9280223626896612  0.8824421915889649  0.32259244787293834  1.0000
  C   C27       1.0  0.8525327114958536  0.9966631127269571  0.3456235650951695  1.0000
  H   H9        1.0  0.9000550396875521  0.39406284117986223  0.4737524539717635  1.0000
  H   H10       1.0  0.9070505654062017  0.13757449804787789  0.714916893377358  1.0000
  H   H11       1.0  0.9088657247431737  0.7204860966347914  0.7146517301300688  1.0000
  H   H12       1.0  0.8959500385246502  0.9568731756887637  0.3531609118108414  1.0000
  H   H13       1.0  0.8998470995062274  0.5011117821395171  0.47378120840672566  1.0000
  H   H14       1.0  0.8324689973888025  0.757288089207906  0.905940887809023  1.0000
  H   H15       1.0  0.8412306561322486  0.7390598704133396  0.14427811142996805  1.0000
  H   H16       1.0  0.002328464761793604  0.05485672467690339  0.12078895155680193  1.0000
  H   H17       1.0  0.9954246795513992  0.07305522851136635  0.8821792221318075  1.0000
  H   H18       1.0  0.8675672776516481  0.09337224229820175  0.296048591318944  1.0000
  H   H19       1.0  0.8438374619037464  0.007101172953368977  0.45130575090519026  1.0000
  H   H20       1.0  0.7996653770454712  0.9598572440279236  0.30595457751402044  1.0000
  C   C28       1.0  0.9016439319095556  0.4436940897990874  0.14433440856528446  1.0000
  C   C29       1.0  0.9697723360844825  0.5142328564856722  0.13484705970685362  1.0000
  C   C30       1.0  0.004330207295846878  0.549868155396983  0.012907703274705813  1.0000
  C   C31       1.0  0.9698448452960913  0.514019458914886  0.8995739151487343  1.0000
  C   C32       1.0  0.901715474729323  0.44348322860228045  0.907069652932674  1.0000
  C   C33       1.0  0.8679968853940939  0.4087147248829024  0.02990021280691502  1.0000
  C   C34       1.0  0.07640487726604483  0.624490905001748  0.003924603552635463  1.0000
  C   C35       1.0  0.08825911042726918  0.7277834125725545  0.0831786509366328  1.0000
  C   C36       1.0  0.1561313480238744  0.7979203356764271  0.07453460389829725  1.0000
  C   C37       1.0  0.2129194566729522  0.7658304581035711  0.9869111013730306  1.0000
  C   C38       1.0  0.20178226195421445  0.6634148434788504  0.9077525969137495  1.0000
  C   C39       1.0  0.133977398808945  0.5930792381961572  0.9160178829553703  1.0000
  Cl  Cl1       1.0  0.2980303722201636  0.8539492686101993  0.9763042244716797  1.0000
  H   H21       1.0  0.9966461853777343  0.5400855384030291  0.2225814728068991  1.0000
  H   H22       1.0  0.9957285555038877  0.5427896226841489  0.8052639521772869  1.0000
  H   H23       1.0  0.8154385008408412  0.35429842218568636  0.03645108445700718  1.0000
  H   H24       1.0  0.8757693763303319  0.4165601088603476  0.5824753323684915  1.0000
  H   H25       1.0  0.04470203343939483  0.7553773309325089  0.1505740516578089  1.0000
  H   H26       1.0  0.16442343418077018  0.8773952570639476  0.13578499163422042  1.0000
  H   H27       1.0  0.24568177734658003  0.6379763804354757  0.8399977735455821  1.0000
  H   H28       1.0  0.12693234247961227  0.5130943616864754  0.8549291614904515  1.0000
  Zn  Zn1       1.0  0.8193613923081875  0.44158879710798493  0.5295232278500763  1.0000
  Zn  Zn2       1.0  0.9839908313022417  0.4455876907704308  0.5218805377641005  1.0000
  C   C40       1.0  0.9017012436327505  0.4383494158376111  0.7628962683807783  1.0000
  C   C41       1.0  0.9016527774336367  0.4488287542692814  0.2885075412865719  1.0000
  C   C42       1.0  0.9016313003068176  0.6807786806993371  0.5205335678954185  1.0000
  C   C43       1.0  0.9017226648793522  0.206397927743815  0.5308703135752981  1.0000
  O   O1        1.0  0.9641317612493794  0.4520638882160863  0.3339930004523231  1.0000
  O   O2        1.0  0.9641721948944787  0.43814837004751034  0.7116098104078669  1.0000
  O   O3        1.0  0.9641148726943598  0.6339130465290641  0.5159002541456077  1.0000
  O   O4        1.0  0.9641890272617624  0.25629921968699265  0.5297024619484365  1.0000
  O   O5        1.0  0.8391631401687182  0.6308772668282127  0.5217013062669844  1.0000
  O   O6        1.0  0.8392204620691062  0.4351141506471884  0.7174107933271217  1.0000
  O   O7        1.0  0.839180028335902  0.44902962399338436  0.33979242197268494  1.0000
  O   O8        1.0  0.8392372943560722  0.25326494614862  0.5355019808361885  1.0000
