data_image0
_chemical_formula_structural       NC8NC6H8C9H8C8H9Zn2C4O8
_chemical_formula_sum              "N2 C35 H25 Zn2 O8"
_cell_length_a       17.457602349358154
_cell_length_b       9.275152443626249
_cell_length_c       9.275657083861812
_cell_angle_alpha    85.66173263315568
_cell_angle_beta     92.37146316173272
_cell_angle_gamma    92.27213218982278

_space_group_name_H-M_alt    "P 1"
_space_group_IT_number       1

loop_
  _space_group_symop_operation_xyz
  'x, y, z'

loop_
  _atom_site_type_symbol
  _atom_site_label
  _atom_site_symmetry_multiplicity
  _atom_site_fract_x
  _atom_site_fract_y
  _atom_site_fract_z
  _atom_site_occupancy
  N   N1        1.0  0.7380662786056061  0.6067343222387082  0.47127815050831545  1.0000
  C   C1        1.0  0.6767691024912496  0.555649634800826  0.45965152029284995  1.0000
  C   C2        1.0  0.6005128177818111  0.4921066847995128  0.44519856043420214  1.0000
  C   C3        1.0  0.5418417443231651  0.5371381550218013  0.5281664513356445  1.0000
  C   C4        1.0  0.46703301918090334  0.4759521242856133  0.5143882246552411  1.0000
  C   C5        1.0  0.40476187845382894  0.5235000248890833  0.6022547904886602  1.0000
  C   C6        1.0  0.3306091279963854  0.5437160538144492  0.5403229484792729  1.0000
  C   C7        1.0  0.2719364073115388  0.5885437555745873  0.6234112240467129  1.0000
  C   C8        1.0  0.1963603904532462  0.6094208634997298  0.559019278373434  1.0000
  N   N2        1.0  0.13561015067047053  0.6261989707080814  0.5072483427225813  1.0000
  C   C9        1.0  0.28692313147078063  0.6134283509654738  0.7689947495050233  1.0000
  C   C10       1.0  0.36029151880355  0.5936466319693812  0.8313553547174037  1.0000
  C   C11       1.0  0.4189513749220363  0.5490214806917777  0.7487743359032428  1.0000
  C   C12       1.0  0.4521872797714069  0.36897414254218264  0.41605449002578293  1.0000
  C   C13       1.0  0.5108462563344283  0.32425448973494353  0.33352949063986426  1.0000
  C   C14       1.0  0.584868083681755  0.3855683768271565  0.34791752719640545  1.0000
  H   H1        1.0  0.5542939280485157  0.6210486343979273  0.6018462097655122  1.0000
  H   H2        1.0  0.3186946485416958  0.5265267212593512  0.42717404768136014  1.0000
  H   H3        1.0  0.24194629659758282  0.6480624218325335  0.8341723387362951  1.0000
  H   H4        1.0  0.3717034581726668  0.6125646235190583  0.9440849681029765  1.0000
  H   H5        1.0  0.4751129493462319  0.5326156037377102  0.7999799768758193  1.0000
  H   H6        1.0  0.39548707484675416  0.3185444297946052  0.40438583897167835  1.0000
  H   H7        1.0  0.4989206297383383  0.2415779628736732  0.2585164799264721  1.0000
  H   H8        1.0  0.6298371835672701  0.34997078330821163  0.2833099157865673  1.0000
  C   C15       1.0  0.9345722379290864  0.19273095118154607  0.49052992502084364  1.0000
  C   C16       1.0  0.9074618600380184  0.2735138260533923  0.3656106258799332  1.0000
  C   C17       1.0  0.8874924795778942  0.20645381488754855  0.23904457668934764  1.0000
  C   C18       1.0  0.8943222660567883  0.05742180787291074  0.23489947263398855  1.0000
  C   C19       1.0  0.9199373533139391  0.9748722564075324  0.3586484771959171  1.0000
  C   C20       1.0  0.9391114113124908  0.04019166068115276  0.4880096897419435  1.0000
  C   C21       1.0  0.8741322756083194  0.9886200390465144  0.10387666457096811  1.0000
  C   C22       1.0  0.8572279221162484  0.9309812544132556  0.9941657503213248  1.0000
  C   C23       1.0  0.8367178416106351  0.8610348014923255  0.8610508320901002  1.0000
  H   H9        1.0  0.04347601300950179  0.2811935498359619  0.7882770034779323  1.0000
  H   H10       1.0  0.9034231293935591  0.3898312374879316  0.36479175562382915  1.0000
  H   H11       1.0  0.8674115054744036  0.27123074708355044  0.14386586658961775  1.0000
  H   H12       1.0  0.9231855255566984  0.8587006052304751  0.35492099810786043  1.0000
  H   H13       1.0  0.009959871330196497  0.7493727319557564  0.691329518740333  1.0000
  H   H14       1.0  0.8506793346286746  0.7450657418267057  0.8757812153214504  1.0000
  H   H15       1.0  0.7743737613393644  0.8704634820278853  0.8356752308970731  1.0000
  H   H16       1.0  0.869540901721017  0.9145110704054943  0.7707115731757339  1.0000
  C   C24       1.0  0.9387841418545907  0.6143817323273201  0.06613321196950639  1.0000
  C   C25       1.0  0.9791095186617249  0.7263233265050522  0.13434185670394871  1.0000
  C   C26       1.0  0.012694579594239478  0.8441091575533795  0.05324030512171695  1.0000
  C   C27       1.0  0.0070874775516589425  0.8490247004416909  0.902076127629689  1.0000
  C   C28       1.0  0.9684223773852453  0.7378102771632781  0.8325628682978928  1.0000
  C   C29       1.0  0.9348994973554098  0.6185408288224205  0.9124064658617329  1.0000
  C   C30       1.0  0.056597081446341485  0.9619406821649524  0.12801236034001162  1.0000
  C   C31       1.0  0.1406349215026701  0.9248911317234512  0.15360320923880863  1.0000
  H   H17       1.0  0.9830613896196543  0.7238423221505308  0.2514337041771477  1.0000
  H   H18       1.0  0.033420774611045756  0.9384838014106709  0.8377675478742836  1.0000
  H   H19       1.0  0.9664784867250613  0.7433369140995603  0.7153932147098314  1.0000
  H   H20       1.0  0.8434373313825172  0.4478043533371002  0.6368716286357787  1.0000
  H   H21       1.0  0.05295715348957098  0.06648931328987562  0.061480416991769975  1.0000
  H   H22       1.0  0.03117081495060492  0.977033694828344  0.2335317404452819  1.0000
  H   H23       1.0  0.14554596846065637  0.8225084754873304  0.22315076376159726  1.0000
  H   H24       1.0  0.1675587805763028  0.9129326477169879  0.04891042472234195  1.0000
  H   H25       1.0  0.17194732517160735  0.01302060936974581  0.2087034270172894  1.0000
  Zn  Zn1       1.0  0.852788793779298  0.6123475706133574  0.48166670219419044  1.0000
  Zn  Zn2       1.0  0.020887503727555098  0.6205739496056151  0.4968716232258965  1.0000
  C   C32       1.0  0.9356012791902792  0.6120061675478237  0.7524596173053535  1.0000
  C   C33       1.0  0.9380768630518685  0.6209172638548321  0.22607901016431928  1.0000
  C   C34       1.0  0.9382758146642035  0.8799751060665071  0.48274378061155754  1.0000
  C   C35       1.0  0.9354022605792536  0.35294658926716993  0.4957949236469547  1.0000
  O   O1        1.0  0.0016320444780599762  0.6262262207347435  0.28552848817252996  1.0000
  O   O2        1.0  0.9996291251488862  0.6129397513773853  0.7045499109896513  1.0000
  O   O3        1.0  0.0017879795361279607  0.8293280234401686  0.4867523823272586  1.0000
  O   O4        1.0  0.9994731332813349  0.40983795565617326  0.5033259035766302  1.0000
  O   O5        1.0  0.8742031068617216  0.8230835617570738  0.47521241664718006  1.0000
  O   O6        1.0  0.8720442621093736  0.6066970229575426  0.6930098633244554  1.0000
  O   O7        1.0  0.8740471891724855  0.6199834335197452  0.2739867082554779  1.0000
  O   O8        1.0  0.8718882774214471  0.4035951586512364  0.4917842317215937  1.0000
