data_image0
_chemical_formula_structural       NC12NC2H8C7NC2OH7C6OCH8Zn2C4O8
_chemical_formula_sum              "N3 C34 H23 O10 Zn2"
_cell_length_a       17.80743265337812
_cell_length_b       10.300333997791364
_cell_length_c       9.273891588657152
_cell_angle_alpha    86.07587827712254
_cell_angle_beta     91.22048166911064
_cell_angle_gamma    89.43519355652523

_space_group_name_H-M_alt    "P 1"
_space_group_IT_number       1

loop_
  _space_group_symop_operation_xyz
  'x, y, z'

loop_
  _atom_site_type_symbol
  _atom_site_label
  _atom_site_symmetry_multiplicity
  _atom_site_fract_x
  _atom_site_fract_y
  _atom_site_fract_z
  _atom_site_occupancy
  N   N1        1.0  0.7119227995735249  0.3938540038126015  0.4479295417121507  1.0000
  C   C1        1.0  0.6613241091368717  0.42278506511739855  0.3716954081775541  1.0000
  C   C2        1.0  0.5983742956117529  0.4587732387013581  0.2768697426679205  1.0000
  C   C3        1.0  0.6105085309790247  0.5116369557295577  0.13636137286165173  1.0000
  C   C4        1.0  0.5494583600886992  0.5461434616524163  0.04419449046413626  1.0000
  C   C5        1.0  0.47612177482729184  0.5280436863919842  0.0918036923159542  1.0000
  C   C6        1.0  0.46300925924437586  0.47506543906388066  0.23283155559027113  1.0000
  C   C7        1.0  0.5249167993805126  0.4405620363992069  0.32498011510115354  1.0000
  C   C8        1.0  0.3850952609994048  0.4558776660292174  0.2836147915311613  1.0000
  C   C9        1.0  0.3659005480591001  0.4842200146992557  0.4245959094118772  1.0000
  C   C10       1.0  0.2925338861756411  0.4661621798265989  0.47225012457421633  1.0000
  C   C11       1.0  0.23741627329635273  0.41951537602606304  0.3798531068948745  1.0000
  C   C12       1.0  0.16190850219265024  0.40091751533104736  0.42906191435608854  1.0000
  N   N2        1.0  0.101205601088707  0.3859660855050364  0.46862241031709506  1.0000
  C   C13       1.0  0.2559177473625996  0.39100907306261057  0.2394745166766148  1.0000
  C   C14       1.0  0.3292323770743183  0.4090793606740133  0.19153634506083428  1.0000
  H   H1        1.0  0.667084895072375  0.5261459973199987  0.09814707591991301  1.0000
  H   H2        1.0  0.5589707188334485  0.587346905085427  0.9356902964509857  1.0000
  H   H3        1.0  0.42969324034452905  0.5570796738887438  0.019018434751664204  1.0000
  H   H4        1.0  0.5161032335828867  0.3979722350594761  0.43334618599841335  1.0000
  H   H5        1.0  0.40736582061954  0.5219945736252201  0.4973628219184403  1.0000
  H   H6        1.0  0.278775179815235  0.4888995452983689  0.5810105905266658  1.0000
  H   H7        1.0  0.2137342589139895  0.3545054818962199  0.16716588216534012  1.0000
  H   H8        1.0  0.3424617243144756  0.3848093061345177  0.08311246001374517  1.0000
  C   C15       1.0  0.9065682424996683  0.008564794206252335  0.45828547446168244  1.0000
  C   C16       1.0  0.887173079036228  0.016996241396266987  0.31033886557984425  1.0000
  C   C17       1.0  0.87738761423727  0.9041617220437551  0.23569429300536449  1.0000
  C   C18       1.0  0.8871710569425735  0.7817045611666901  0.310326097582283  1.0000
  C   C19       1.0  0.9065673345723948  0.7712452330060907  0.4582792769745152  1.0000
  C   C20       1.0  0.9161578971325945  0.8852337689228527  0.5314336317645589  1.0000
  C   C21       1.0  0.8569742544180519  0.9147794423139094  0.07996932634047615  1.0000
  N   N3        1.0  0.8465078889114872  0.8112991988913587  0.00012169481503909729  1.0000
  C   C22       1.0  0.8291138142226616  0.8658977679472762  0.8674262973084224  1.0000
  C   C23       1.0  0.8296079399613066  0.9991248685957559  0.8711986578441993  1.0000
  O   O1        1.0  0.8469654123632774  0.026188707860209215  0.003615717248981687  1.0000
  H   H9        1.0  0.9139504258548948  0.3327803159776943  0.5146494655865923  1.0000
  H   H10       1.0  0.8796443025479845  0.1115392096886807  0.25290576633279693  1.0000
  H   H11       1.0  0.8796577484224686  0.6944439728730689  0.253015258539929  1.0000
  H   H12       1.0  0.9311182258001195  0.8779467205208038  0.6455508378586194  1.0000
  H   H13       1.0  0.9139562100147173  0.43983034766675555  0.5146730921323828  1.0000
  H   H14       1.0  0.8168581614809121  0.81183333666778  0.7739292961160804  1.0000
  H   H15       1.0  0.817923271457619  0.07024206797587929  0.7820601163866518  1.0000
  C   C24       1.0  0.9077983326977017  0.38644083466235846  0.03507248373855121  1.0000
  C   C25       1.0  0.969312815694165  0.4400445243799931  0.1069156242450755  1.0000
  C   C26       1.0  0.026566537200066742  0.5034315153792188  0.0301487543173109  1.0000
  C   C27       1.0  0.022510508466512258  0.5135360671187188  0.878492457245263  1.0000
  C   C28       1.0  0.9625741285205679  0.4591140957172921  0.8053910113072598  1.0000
  C   C29       1.0  0.9053372046947773  0.3933691951151628  0.8814922445190962  1.0000
  O   O2        1.0  0.08602965154573194  0.5554778904304287  0.10851577228105236  1.0000
  C   C30       1.0  0.147885256142126  0.6225676339820629  0.04472686543934423  1.0000
  H   H16       1.0  0.7291303324235889  0.3103015288489277  0.1365930356925129  1.0000
  H   H17       1.0  0.9721714344323353  0.43545920606852784  0.22400156609177935  1.0000
  H   H18       1.0  0.06578088594181652  0.5622476853713667  0.815870014913652  1.0000
  H   H19       1.0  0.9619680277438246  0.4658192116553339  0.688277563128294  1.0000
  H   H20       1.0  0.7861893659314663  0.3369367267974075  0.5997166122801234  1.0000
  H   H21       1.0  0.12772189162929815  0.7108539756748657  0.9792587689868184  1.0000
  H   H22       1.0  0.17920535068347498  0.5574833800170755  0.9759795776484563  1.0000
  H   H23       1.0  0.18633613946541439  0.6528285641057778  0.1316140669703909  1.0000
  Zn  Zn1       1.0  0.8242613863044385  0.3915743219209673  0.45390936497239065  1.0000
  Zn  Zn2       1.0  0.9888669776964112  0.38823527081831877  0.46265434238519965  1.0000
  C   C31       1.0  0.9058007536778208  0.3868863014861301  0.7215007577429449  1.0000
  C   C32       1.0  0.9073294073976752  0.3929248944665169  0.19506318654734156  1.0000
  C   C33       1.0  0.9065803199085689  0.6270355048188352  0.45253729028837975  1.0000
  C   C34       1.0  0.9065497847770372  0.15277413269643336  0.46402672786551413  1.0000
  O   O3        1.0  0.9696389958742194  0.3938281862879387  0.2520762013424491  1.0000
  O   O4        1.0  0.9684230015611396  0.3834477640806422  0.6711245636054572  1.0000
  O   O5        1.0  0.9690516647096269  0.5773713122211401  0.4539346159258175  1.0000
  O   O6        1.0  0.9690102768711792  0.19990464769196525  0.46926603798004884  1.0000
  O   O7        1.0  0.8441180309578826  0.5799049461881265  0.4472976663857291  1.0000
  O   O8        1.0  0.8434893680274973  0.38598295762581336  0.6644875372099495  1.0000
  O   O9        1.0  0.8447053674287317  0.3963633203957968  0.2454374422439385  1.0000
  O   O10       1.0  0.8440766481084563  0.20243977339610542  0.4626273869317665  1.0000
