data_image0
_chemical_formula_structural       NC9NC5H8C7H8C6BrH5Zn2C4O8
_chemical_formula_sum              "N2 C31 H21 Br1 Zn2 O8"
_cell_length_a       17.807436237873137
_cell_length_b       9.274341958901593
_cell_length_c       10.302972455390005
_cell_angle_alpha    85.52848279273155
_cell_angle_beta     89.39215201277248
_cell_angle_gamma    87.76967926577302

_space_group_name_H-M_alt    "P 1"
_space_group_IT_number       1

loop_
  _space_group_symop_operation_xyz
  'x, y, z'

loop_
  _atom_site_type_symbol
  _atom_site_label
  _atom_site_symmetry_multiplicity
  _atom_site_fract_x
  _atom_site_fract_y
  _atom_site_fract_z
  _atom_site_occupancy
  N   N1        1.0  0.6987179177368297  0.5418061416249085  0.556944716481947  1.0000
  C   C1        1.0  0.6383508519382074  0.5027104413923323  0.5459411974057697  1.0000
  C   C2        1.0  0.5632608569385814  0.45407969574685875  0.5322540143984691  1.0000
  C   C3        1.0  0.5456169018204435  0.37473832251192185  0.42731983375858207  1.0000
  C   C4        1.0  0.4727090828544575  0.32739774423566503  0.4139479129116394  1.0000
  C   C5        1.0  0.41639886568743134  0.3589791040615472  0.5054779115814914  1.0000
  C   C6        1.0  0.3389159285329764  0.30879593349420187  0.4913490152422155  1.0000
  C   C7        1.0  0.2762273724945165  0.3996268335542936  0.5172404278517313  1.0000
  C   C8        1.0  0.20317852066368935  0.3520606799078554  0.5038822803175498  1.0000
  C   C9        1.0  0.13942301379916514  0.44588166889741015  0.5301361938576283  1.0000
  N   N2        1.0  0.08817661117520438  0.521307253126706  0.5512436168788417  1.0000
  C   C10       1.0  0.1922362962370919  0.21337701070973233  0.46460750166242865  1.0000
  C   C11       1.0  0.2540675692402848  0.1225307208102291  0.43870770872111725  1.0000
  C   C12       1.0  0.3269994609235188  0.16965854088435228  0.45186357261690646  1.0000
  C   C13       1.0  0.4347311280416782  0.4388697166834146  0.6106310140576782  1.0000
  C   C14       1.0  0.5076930112206729  0.48599876793326674  0.623847426181064  1.0000
  H   H1        1.0  0.5881527271896524  0.34975774912610924  0.35564144785382584  1.0000
  H   H2        1.0  0.4601328862474964  0.267757337864599  0.33108038437440435  1.0000
  H   H3        1.0  0.2841142188074184  0.507910076400294  0.5460615019020635  1.0000
  H   H4        1.0  0.1359845079869528  0.17556304981808402  0.4540323309214393  1.0000
  H   H5        1.0  0.2454772410865985  0.015158616527332972  0.40868622870803395  1.0000
  H   H6        1.0  0.374052187806952  0.096615972321475  0.43285278141432837  1.0000
  H   H7        1.0  0.39291555937885553  0.46325139746519467  0.6836037280811117  1.0000
  H   H8        1.0  0.5207899111167722  0.5469952517154426  0.7056730900727717  1.0000
  C   C15       1.0  0.8958400020167612  0.10785504871447271  0.5542815760130972  1.0000
  C   C16       1.0  0.9047231654722245  0.19073235977573158  0.4352797416458619  1.0000
  C   C17       1.0  0.9061299386217018  0.12570410532909215  0.31764759920083874  1.0000
  C   C18       1.0  0.8978625892791813  0.9765089790786572  0.31620070899871644  1.0000
  C   C19       1.0  0.8913203767274476  0.8919005763268263  0.4342076295972135  1.0000
  C   C20       1.0  0.8910617488920168  0.9552468844370509  0.5539179575952112  1.0000
  C   C21       1.0  0.9010375983011615  0.9063504137239925  0.18976577332892663  1.0000
  H   H9        1.0  0.8333099791869724  0.18930401235983954  0.8559847853188371  1.0000
  H   H10       1.0  0.9089821663568601  0.3071159246609747  0.4329858870327101  1.0000
  H   H11       1.0  0.9128748328007823  0.19222536532834766  0.227415851394688  1.0000
  H   H12       1.0  0.8881432154881966  0.7755638651055259  0.43259669262318234  1.0000
  H   H13       1.0  0.8519518594122791  0.6597116417773996  0.7586978465754561  1.0000
  H   H14       1.0  0.9601350261656703  0.8736928873801552  0.16763426256619396  1.0000
  H   H15       1.0  0.8791236343260879  0.9823211064218211  0.10906716878073984  1.0000
  H   H16       1.0  0.8663670032491266  0.8090032588519243  0.19546628509251615  1.0000
  C   C22       1.0  0.8934508609234927  0.5315509652413912  0.17285720058465448  1.0000
  C   C23       1.0  0.9161840420429936  0.38441326294386663  0.1815501781452946  1.0000
  C   C24       1.0  0.9274609683586661  0.3114250162444181  0.06892452854554287  1.0000
  C   C25       1.0  0.9161841690200975  0.38441319996192225  0.9464677857140429  1.0000
  C   C26       1.0  0.8934508964565833  0.5315509673184997  0.9353422821369817  1.0000
  C   C27       1.0  0.8821940466094557  0.6044092572184239  0.04919298169610164  1.0000
  Br  Br1       1.0  0.9583818573435343  0.11129231773163341  0.08240287077554864  1.0000
  H   H17       1.0  0.8848946062266868  0.5869324531253597  0.49688678567539823  1.0000
  H   H18       1.0  0.9252335933584894  0.32584044206890117  0.27549416819091066  1.0000
  H   H19       1.0  0.9252338900313022  0.32584047477500994  0.8604132611940195  1.0000
  H   H20       1.0  0.86466130686288  0.7178874974657374  0.041550567928904984  1.0000
  H   H21       1.0  0.8848935531234251  0.5869319669495068  0.6038531773817359  1.0000
  Zn  Zn1       1.0  0.8111073044087076  0.5358867552665094  0.5553070122428811  1.0000
  Zn  Zn2       1.0  0.9757872726256438  0.5272148782291621  0.552891999239455  1.0000
  C   C28       1.0  0.8934816325155223  0.5258031031053086  0.791218782140828  1.0000
  C   C29       1.0  0.8934147325535641  0.5373002562027023  0.31698032961260453  1.0000
  C   C30       1.0  0.8919610862875991  0.7950720056021375  0.5488132638585432  1.0000
  C   C31       1.0  0.8949352323625042  0.2680296231663324  0.5593859186785655  1.0000
  O   O1        1.0  0.9558978327380192  0.5359325439802052  0.36443288614785474  1.0000
  O   O2        1.0  0.9559868239102488  0.5205879728367673  0.7419329133605176  1.0000
  O   O3        1.0  0.954758121136302  0.7380260613363813  0.5461887539993315  1.0000
  O   O4        1.0  0.9571264792596422  0.3184944687611646  0.5601769489862882  1.0000
  O   O5        1.0  0.8297680415775095  0.7446071676953638  0.5480220633133432  1.0000
  O   O6        1.0  0.83099673457324  0.5271708126961476  0.7437661527081492  1.0000
  O   O7        1.0  0.8309077437344091  0.5425153335574664  0.36626456463300383  1.0000
  O   O8        1.0  0.8321363903111559  0.32507724801870924  0.5620087248114861  1.0000
