data_image0
_chemical_formula_structural       NC8NC6H8C6ClH3C6NH5Zn2C4O8
_chemical_formula_sum              "N3 C30 H16 Cl1 Zn2 O8"
_cell_length_a       17.457602349358154
_cell_length_b       10.30297070629231
_cell_length_c       9.274774538082514
_cell_angle_alpha    85.06361778746081
_cell_angle_beta     93.23827242343725
_cell_angle_gamma    91.68807172504815

_space_group_name_H-M_alt    "P 1"
_space_group_IT_number       1

loop_
  _space_group_symop_operation_xyz
  'x, y, z'

loop_
  _atom_site_type_symbol
  _atom_site_label
  _atom_site_symmetry_multiplicity
  _atom_site_fract_x
  _atom_site_fract_y
  _atom_site_fract_z
  _atom_site_occupancy
  N   N1        1.0  0.7174647078388677  0.4641098138596549  0.4731805179766075  1.0000
  C   C1        1.0  0.6563484358204026  0.4182903073896598  0.4613797415269853  1.0000
  C   C2        1.0  0.5803172448567275  0.3612964722449791  0.44671018276834373  1.0000
  C   C3        1.0  0.5220591060632302  0.40080462027161423  0.5299688129059618  1.0000
  C   C4        1.0  0.4474682169017249  0.34592310455299313  0.5159822830004777  1.0000
  C   C5        1.0  0.385635150941287  0.38763584942061957  0.6041563300238915  1.0000
  C   C6        1.0  0.3108871005060464  0.40657525878875267  0.5421678493174191  1.0000
  C   C7        1.0  0.2526293487353709  0.44589861759422833  0.6255464841763647  1.0000
  C   C8        1.0  0.1764351419665739  0.4654626344534503  0.5610952270019193  1.0000
  N   N2        1.0  0.11518791677714009  0.4811857250894075  0.5092765841429492  1.0000
  C   C9        1.0  0.26862932118685623  0.4665212797506355  0.771478883998844  1.0000
  C   C10       1.0  0.3425940674100555  0.44796741532301465  0.833898231045014  1.0000
  C   C11       1.0  0.40084186730187193  0.40882013705859066  0.7510284136800206  1.0000
  C   C12       1.0  0.4324189374386123  0.2508684983950411  0.41714424407673034  1.0000
  C   C13       1.0  0.49066680268252916  0.21163551829854121  0.3343302702895136  1.0000
  C   C14       1.0  0.5644749123031786  0.2666246688830433  0.34892814179095627  1.0000
  H   H1        1.0  0.534643781033592  0.47540459502128507  0.6040376219456829  1.0000
  H   H2        1.0  0.2981736429434659  0.3924825594425574  0.4287542095273733  1.0000
  H   H3        1.0  0.2239808325411054  0.4968907460825056  0.8368826615127694  1.0000
  H   H4        1.0  0.3547924659670262  0.4636204625420899  0.9468969426804585  1.0000
  H   H5        1.0  0.45749399243513844  0.3934387959815633  0.8022818041414616  1.0000
  H   H6        1.0  0.3758958130221305  0.2056387776777011  0.4053033189717137  1.0000
  H   H7        1.0  0.4785916098536283  0.1381618933077744  0.25892936951101886  1.0000
  H   H8        1.0  0.6091252907427275  0.23538141462653558  0.2840925469141624  1.0000
  C   C15       1.0  0.9163299872134  0.0914004158911916  0.4912351097519611  1.0000
  C   C16       1.0  0.995665480579122  0.09144579530333585  0.5262337250302012  1.0000
  C   C17       1.0  0.03502963456162611  0.9745114682226674  0.5435990028900002  1.0000
  C   C18       1.0  0.9956654797458648  0.856337827129343  0.5262336570790453  1.0000
  C   C19       1.0  0.9163299956720341  0.8538853574198758  0.491235193136956  1.0000
  C   C20       1.0  0.8770489735936465  0.9720245587013838  0.473906456249514  1.0000
  Cl  Cl1       1.0  0.13413856761031973  0.9760716756277372  0.5873205124560945  1.0000
  H   H9        1.0  0.02721913396714148  0.18198910926062162  0.5401534009509832  1.0000
  H   H10       1.0  0.027219103280853744  0.7667879159272695  0.540153294474895  1.0000
  H   H11       1.0  0.8158630334159043  0.9710612337989275  0.4469144255569603  1.0000
  C   C21       1.0  0.9149527154916886  0.4759042726424936  0.06729381387370004  1.0000
  C   C22       1.0  0.9693320537190486  0.5548527779212982  0.13896561599427826  1.0000
  C   C23       1.0  0.02715436033678209  0.6232546600971489  0.06344846396758007  1.0000
  C   C24       1.0  0.03106563784129811  0.6130271113854311  0.9148260231082269  1.0000
  C   C25       1.0  0.9769325175668453  0.5369491509781557  0.8414740044658141  1.0000
  C   C26       1.0  0.9177072766278752  0.46938143084061007  0.9151764349399917  1.0000
  N   N3        1.0  0.08241472530890892  0.7020603728511704  0.13820547032374209  1.0000
  H   H12       1.0  0.8002391688854656  0.21718883204629114  0.1828030940058262  1.0000
  H   H13       1.0  0.07570880235470995  0.665104041591025  0.8553469211684943  1.0000
  H   H14       1.0  0.8380867174164947  0.29897862089855853  0.6418685468641057  1.0000
  H   H15       1.0  0.08018616217083376  0.71010613955912  0.2493731364287541  1.0000
  H   H16       1.0  0.12595019485758874  0.7530688039627211  0.08291452223241902  1.0000
  Zn  Zn1       1.0  0.8322390617565785  0.4690340072617291  0.48360539848033257  1.0000
  Zn  Zn2       1.0  0.0004135870077042168  0.47625079633131784  0.49886352308043963  1.0000
  C   C27       1.0  0.9171848977807705  0.46544231159450167  0.7549083109164316  1.0000
  C   C28       1.0  0.9154695879044864  0.47984420781324366  0.22756091895824992  1.0000
  C   C29       1.0  0.9163073672150518  0.7098035321432069  0.4854818991075713  1.0000
  C   C30       1.0  0.9163470613339941  0.235481424404236  0.4969874025282836  1.0000
  O   O1        1.0  0.9794644108916245  0.483899555952803  0.2871384022498229  1.0000
  O   O2        1.0  0.9808306468154598  0.46686336316025157  0.7069109755686771  1.0000
  O   O3        1.0  0.9801211743201432  0.6641880906550797  0.4893471637383106  1.0000
  O   O4        1.0  0.9801738256487069  0.2865748361153684  0.5047021006289765  1.0000
  O   O5        1.0  0.8524787657258394  0.6587099650164145  0.4777668157173528  1.0000
  O   O6        1.0  0.8531882379676309  0.4613867979206249  0.6953305505721032  1.0000
  O   O7        1.0  0.8518219964559592  0.4784229588266544  0.2755562415572741  1.0000
  O   O8        1.0  0.8525314115615388  0.28109822887056185  0.4931200481731982  1.0000
