data_image0
_chemical_formula_structural       NC9NC5H8C7F3H5C6H6Zn2C4O8
_chemical_formula_sum              "N2 C31 H19 F3 Zn2 O8"
_cell_length_a       17.807436237873137
_cell_length_b       9.27228830945605
_cell_length_c       10.681121600428288
_cell_angle_alpha    85.26210850016507
_cell_angle_beta     89.39214167786866
_cell_angle_gamma    87.81380667828488

_space_group_name_H-M_alt    "P 1"
_space_group_IT_number       1

loop_
  _space_group_symop_operation_xyz
  'x, y, z'

loop_
  _atom_site_type_symbol
  _atom_site_label
  _atom_site_symmetry_multiplicity
  _atom_site_fract_x
  _atom_site_fract_y
  _atom_site_fract_z
  _atom_site_occupancy
  N   N1        1.0  0.6993653063847162  0.5426779901953418  0.6017805776633964  1.0000
  C   C1        1.0  0.6389818296951196  0.5035601810530961  0.5913251885396178  1.0000
  C   C2        1.0  0.5638714213543856  0.45490193435875326  0.578319819433411  1.0000
  C   C3        1.0  0.5461941704069508  0.37551569059726986  0.4774224743757925  1.0000
  C   C4        1.0  0.47326647966816787  0.3281483408700169  0.46471597330221104  1.0000
  C   C5        1.0  0.4169695104856927  0.3597475625802393  0.552877399491445  1.0000
  C   C6        1.0  0.3394655083415757  0.30953601305603  0.539452251676452  1.0000
  C   C7        1.0  0.2768150796329177  0.40041827867607904  0.5640586198298904  1.0000
  C   C8        1.0  0.20374626133320894  0.3528252260163274  0.5513663193483158  1.0000
  C   C9        1.0  0.1400301369745902  0.4466992714695433  0.5763102272375564  1.0000
  N   N2        1.0  0.0888153951606204  0.5221675094249918  0.5963644576549689  1.0000
  C   C10       1.0  0.1927458227918054  0.2140631301633418  0.5140444874987558  1.0000
  C   C11       1.0  0.254538962005551  0.12316546600069557  0.4894300981257246  1.0000
  C   C12       1.0  0.3274906361701516  0.17031993720495048  0.5019290543397319  1.0000
  C   C13       1.0  0.4353352992123325  0.4396833563294782  0.6539836881452172  1.0000
  C   C14       1.0  0.5083169653831778  0.4868390594074415  0.6665410439738322  1.0000
  H   H1        1.0  0.5887195166631176  0.350520988641426  0.4083830723843438  1.0000
  H   H2        1.0  0.46066525521636614  0.2684742054937399  0.38502413908541655  1.0000
  H   H3        1.0  0.284747379314676  0.5087627564545358  0.5914201448277465  1.0000
  H   H4        1.0  0.1364781616691223  0.17622778519712298  0.5039970831183476  1.0000
  H   H5        1.0  0.2459035630972591  0.015732641998852156  0.46090697029103583  1.0000
  H   H6        1.0  0.37451270239349405  0.09723606257026926  0.4838875624397433  1.0000
  H   H7        1.0  0.3935299581166689  0.4640788270453702  0.7242740235290268  1.0000
  H   H8        1.0  0.5214394625033126  0.5478700390255324  0.7452223991416087  1.0000
  C   C15       1.0  0.8963052219313795  0.10848149816512855  0.6009717678864839  1.0000
  C   C16       1.0  0.9320098337127873  0.18861080234775376  0.5015625664019908  1.0000
  C   C17       1.0  0.9602932470461037  0.12150501835066563  0.39789036841360553  1.0000
  C   C18       1.0  0.9525969593160709  0.9727056526456481  0.38999259642206696  1.0000
  C   C19       1.0  0.91963355002191  0.8907495302375702  0.49095771464876825  1.0000
  C   C20       1.0  0.8918827334817694  0.9563525668682319  0.5971841086754504  1.0000
  C   C21       1.0  0.9850782893731534  0.8994537813119938  0.2795408837445972  1.0000
  F   F1        1.0  0.9844275120207118  0.9940880427024544  0.17227167924930334  1.0000
  F   F2        1.0  0.9436976436204783  0.7812800074769829  0.2562445355468175  1.0000
  F   F3        1.0  0.058357559832518106  0.853037195619851  0.3056410022713425  1.0000
  H   H9        1.0  0.7699657567232687  0.19771179411272755  0.8279835968511249  1.0000
  H   H10       1.0  0.9367498926260073  0.3046254352749307  0.502792469408639  1.0000
  H   H11       1.0  0.9876742015857094  0.1865402914201737  0.3231971080915108  1.0000
  H   H12       1.0  0.9172323725053134  0.7744371756001398  0.4881751728713431  1.0000
  H   H13       1.0  0.8568854023365511  0.8285083202987835  0.9009553897408953  1.0000
  C   C22       1.0  0.8940939848369721  0.5324170034081745  0.23133269983954932  1.0000
  C   C23       1.0  0.8407253909667562  0.45495895018906163  0.17101691003521546  1.0000
  C   C24       1.0  0.8407253435656789  0.4549590452284245  0.04013477032128332  1.0000
  C   C25       1.0  0.8940939253921084  0.5324170772871988  0.9668231360213185  1.0000
  C   C26       1.0  0.9474184717618255  0.6098109315456401  0.027139260109908525  1.0000
  C   C27       1.0  0.9474184622640835  0.6098109096661082  0.15803155900666702  1.0000
  H   H14       1.0  0.9480637762763258  0.6107484057318522  0.5234712738990088  1.0000
  H   H15       1.0  0.7988925676566866  0.3942436670928777  0.22492122714814622  1.0000
  H   H16       1.0  0.7988925516077584  0.39424373587470957  0.996417197837301  1.0000
  H   H17       1.0  0.9892567575203174  0.6705342179883856  0.9732791647487646  1.0000
  H   H18       1.0  0.9892567199221047  0.6705341693742171  0.20170353298579902  1.0000
  H   H19       1.0  0.9480640134374516  0.610747890404614  0.6615422471708007  1.0000
  Zn  Zn1       1.0  0.8117522083199165  0.5367552563806877  0.6002248621155145  1.0000
  Zn  Zn2       1.0  0.9764285364093406  0.5280784753330299  0.5979305209835057  1.0000
  C   C28       1.0  0.8941222786403278  0.5266659087441597  0.8278254262812655  1.0000
  C   C29       1.0  0.894060254848135  0.5381695497578456  0.37033004653924473  1.0000
  C   C30       1.0  0.8927147946646176  0.796087075608218  0.5929097953195767  1.0000
  C   C31       1.0  0.895467691678388  0.2687466513756301  0.6052457527974504  1.0000
  O   O1        1.0  0.9565427758993338  0.5368010654674462  0.41610816348144275  1.0000
  O   O2        1.0  0.9566252859388635  0.5214478278976249  0.7803056018814918  1.0000
  O   O3        1.0  0.9554878823819266  0.7390088718245489  0.5906095728445397  1.0000
  O   O4        1.0  0.9576801232095317  0.319240034828603  0.6058040993590222  1.0000
  O   O5        1.0  0.8305005653237681  0.7455936998476455  0.5923512845163499  1.0000
  O   O6        1.0  0.8316379598302049  0.5280343904014103  0.7820472390331368  1.0000
  O   O7        1.0  0.8315554501031294  0.5433875776606336  0.4178482952345464  1.0000
  O   O8        1.0  0.8326927974641095  0.3258265366962414  0.6075443250478505  1.0000
