data_image0
_chemical_formula_structural       NC12NC2H8C7OC6H10C6SCOC6H10Zn2C4O8
_chemical_formula_sum              "N2 C44 H28 O10 S1 Zn2"
_cell_length_a       17.80743265337812
_cell_length_b       10.299379429549807
_cell_length_c       10.302041481415108
_cell_angle_alpha    85.5191038852169
_cell_angle_beta     91.53022125456708
_cell_angle_gamma    89.43379168207073

_space_group_name_H-M_alt    "P 1"
_space_group_IT_number       1

loop_
  _space_group_symop_operation_xyz
  'x, y, z'

loop_
  _atom_site_type_symbol
  _atom_site_label
  _atom_site_symmetry_multiplicity
  _atom_site_fract_x
  _atom_site_fract_y
  _atom_site_fract_z
  _atom_site_occupancy
  N   N1        1.0  0.70743306532011  0.40720442019474334  0.6011402144638066  1.0000
  C   C1        1.0  0.6566146495826964  0.4367863656834063  0.5324465740199354  1.0000
  C   C2        1.0  0.5933915254113038  0.47358415745018223  0.4470003320895277  1.0000
  C   C3        1.0  0.6051207908098578  0.5276474732165024  0.3203901435614454  1.0000
  C   C4        1.0  0.5438049820988796  0.5629408386528688  0.23733987938567738  1.0000
  C   C5        1.0  0.4706056187748705  0.5444345738794243  0.2802399580634756  1.0000
  C   C6        1.0  0.4578995687948944  0.49025230254940066  0.4073182241332456  1.0000
  C   C7        1.0  0.5200726940186029  0.45496219633822155  0.49035197925545987  1.0000
  C   C8        1.0  0.3801319384658675  0.4706309545394973  0.453078341274219  1.0000
  C   C9        1.0  0.3613419108234834  0.4977796686287943  0.5800833542641568  1.0000
  C   C10       1.0  0.2881125994220943  0.4793149671737822  0.6230239712823297  1.0000
  C   C11       1.0  0.2327303297306534  0.43344700510657574  0.5397974425936245  1.0000
  C   C12       1.0  0.1573643888109406  0.4144290109155135  0.5841388644941832  1.0000
  N   N2        1.0  0.09677550941854611  0.3991398226574717  0.6197863173192867  1.0000
  C   C13       1.0  0.2508288538204766  0.4061292003161938  0.413335335095796  1.0000
  C   C14       1.0  0.32400531654768255  0.42460876720812596  0.3701388849032346  1.0000
  H   H1        1.0  0.6615870118780113  0.5424827878589187  0.2859557078930399  1.0000
  H   H2        1.0  0.5530046048633463  0.6050706900114575  0.139568074317439  1.0000
  H   H3        1.0  0.42396727087505587  0.5740921729084478  0.2146535160062879  1.0000
  H   H4        1.0  0.5115714952177604  0.4114469895693802  0.5879998741986445  1.0000
  H   H5        1.0  0.40301559181853  0.5349409813250237  0.645627686298244  1.0000
  H   H6        1.0  0.2746660715466944  0.5011316055320574  0.7210021792621666  1.0000
  H   H7        1.0  0.2084382485612748  0.3702351201633937  0.3482033984729774  1.0000
  H   H8        1.0  0.3369234838471716  0.40125639342915703  0.2724645038054876  1.0000
  C   C15       1.0  0.9021160752866432  0.02177993147864576  0.6106178429656802  1.0000
  C   C16       1.0  0.94765229481337  0.010910527812698186  0.7245196138820222  1.0000
  C   C17       1.0  0.9699152190340651  0.8882033562948948  0.7827856309510448  1.0000
  C   C18       1.0  0.9475608619074943  0.7756904421448563  0.724239013562623  1.0000
  C   C19       1.0  0.9020996949920106  0.784554198203206  0.6103202163995023  1.0000
  C   C20       1.0  0.8794778226162094  0.9080705984721714  0.5543596905923518  1.0000
  C   C21       1.0  0.01865055375926028  0.8766296580227808  0.9022912723813228  1.0000
  O   O1        1.0  0.0663108381226154  0.7848518657423669  0.9169272521363505  1.0000
  C   C22       1.0  0.013314161710992867  0.9690711828907838  0.005197716539811493  1.0000
  C   C23       1.0  0.07757186450407949  0.9971808807452214  0.07982196375552587  1.0000
  C   C24       1.0  0.07291507016061828  0.08300380282862972  0.17806949751374937  1.0000
  C   C25       1.0  0.004096066265740997  0.1407132162205533  0.2035255623719965  1.0000
  C   C26       1.0  0.9397231031243812  0.11229628293499494  0.13113939926554363  1.0000
  C   C27       1.0  0.9440782126913916  0.02655929208158647  0.03278976987315741  1.0000
  H   H9        1.0  0.8171345322687799  0.24968224938192193  0.3945633279662587  1.0000
  H   H10       1.0  0.9665483281792691  0.09809302985102875  0.7672523379973654  1.0000
  H   H11       1.0  0.9651460021984825  0.681010176897178  0.7685088044142037  1.0000
  H   H12       1.0  0.8443731827011448  0.9156459896045009  0.46654942122641674  1.0000
  H   H13       1.0  0.8851584587935252  0.460541120158568  0.565950904903555  1.0000
  H   H14       1.0  0.13146701189701648  0.9536264644123814  0.06136037697940689  1.0000
  H   H15       1.0  0.12271268734247666  0.10472430356304252  0.23453848780578257  1.0000
  H   H16       1.0  0.000593883308753982  0.207030499306897  0.2796819935485336  1.0000
  H   H17       1.0  0.8863112956978517  0.1562787599277713  0.1516235179980915  1.0000
  H   H18       1.0  0.8932429677766274  0.004174329655237212  0.9794301347702714  1.0000
  C   C28       1.0  0.9021219653233085  0.403296045737032  0.22918262798499137  1.0000
  C   C29       1.0  0.9365605231086439  0.525688370673784  0.21987105096249707  1.0000
  C   C30       1.0  0.9540302631174739  0.5860561952190393  0.09829875300900096  1.0000
  C   C31       1.0  0.9366318322823505  0.5252830073065906  0.9847692112826941  1.0000
  C   C32       1.0  0.9020938227381745  0.40303805460360914  0.9917554717364752  1.0000
  C   C33       1.0  0.8850731077427394  0.3426223715415426  0.11454271555820951  1.0000
  S   S1        1.0  0.9986953994995748  0.7416731475784257  0.08785436685749581  1.0000
  C   C34       1.0  0.09124128051662272  0.6699514010477828  0.09488207335060594  1.0000
  O   O2        1.0  0.12064265537558061  0.6461682806947191  0.9892388920854387  1.0000
  C   C35       1.0  0.13265071720821764  0.6377491440789589  0.2204019258187322  1.0000
  C   C36       1.0  0.1992973535285727  0.5626409600714466  0.2238146744973735  1.0000
  C   C37       1.0  0.23845407260246687  0.5309313267693767  0.34165403371926484  1.0000
  C   C38       1.0  0.21176162341373875  0.5738342337059315  0.4572967925384188  1.0000
  C   C39       1.0  0.14592243328583754  0.6487668726515371  0.4553030419977532  1.0000
  C   C40       1.0  0.1065414681885779  0.6808553075358879  0.33775220375462306  1.0000
  H   H19       1.0  0.8370987199049752  0.17272336808521516  0.45403624942806214  1.0000
  H   H20       1.0  0.9500552473423057  0.5743395087347114  0.30681262174170537  1.0000
  H   H21       1.0  0.9504449914765964  0.5735959997132549  0.8914404611584987  1.0000
  H   H22       1.0  0.8585251784018496  0.24826635716234602  0.120800806620772  1.0000
  H   H23       1.0  0.889167613074887  0.35638640015685374  0.6670954140853862  1.0000
  H   H24       1.0  0.22099893893171796  0.5277315174400665  0.13554874650769214  1.0000
  H   H25       1.0  0.2895227683173569  0.4728856900016105  0.34327493318331936  1.0000
  H   H26       1.0  0.24214128576244676  0.5491523773923961  0.5484231389275076  1.0000
  H   H27       1.0  0.12538743189206514  0.6822650318856331  0.5449794169059915  1.0000
  H   H28       1.0  0.0560428701857445  0.7398312480767324  0.33938549882552704  1.0000
  Zn  Zn1       1.0  0.8197888875639248  0.4048736815271038  0.6065285636354394  1.0000
  Zn  Zn2       1.0  0.9844196845172193  0.4014599636385896  0.6144085630404885  1.0000
  C   C41       1.0  0.902097557842142  0.39791287816339627  0.8476147879715359  1.0000
  C   C42       1.0  0.9021128119622774  0.4084223684007833  0.37332255155322086  1.0000
  C   C43       1.0  0.9020991113096113  0.6403754481008992  0.6052022438050348  1.0000
  C   C44       1.0  0.9021112023487862  0.16595823920720493  0.6157351628633125  1.0000
  O   O3        1.0  0.9645862695955781  0.4088416548821547  0.42468764755522004  1.0000
  O   O4        1.0  0.9645750658339041  0.39490167913702234  0.8022300558043306  1.0000
  O   O5        1.0  0.964575478015166  0.5906932877263416  0.6064801704411427  1.0000
  O   O6        1.0  0.9645858012403736  0.21305005678142705  0.6204374328722719  1.0000
  O   O7        1.0  0.8396227146603593  0.5932835895506173  0.6004996911077682  1.0000
  O   O8        1.0  0.8396223024447084  0.3974935413837239  0.7962495066314783  1.0000
  O   O9        1.0  0.8396335063149779  0.41143347239719374  0.4187055373395401  1.0000
  O   O10       1.0  0.839633037953305  0.21564186497422444  0.6144554200068411  1.0000
