data_image0
_chemical_formula_structural       NC12NC2H8C13OH12C12NCOH11Zn2C4O8
_chemical_formula_sum              "N3 C44 H31 O10 Zn2"
_cell_length_a       19.240039667572717
_cell_length_b       10.299150109392551
_cell_length_c       10.299148425239203
_cell_angle_alpha    85.51660845067315
_cell_angle_beta     89.98519547309932
_cell_angle_gamma    89.97992514300192

_space_group_name_H-M_alt    "P 1"
_space_group_IT_number       1

loop_
  _space_group_symop_operation_xyz
  'x, y, z'

loop_
  _atom_site_type_symbol
  _atom_site_label
  _atom_site_symmetry_multiplicity
  _atom_site_fract_x
  _atom_site_fract_y
  _atom_site_fract_z
  _atom_site_occupancy
  N   N1        1.0  0.6544086413699416  0.4219863190297912  0.5668870678173468  1.0000
  C   C1        1.0  0.5942602725482395  0.421986403052004  0.5668869858473038  1.0000
  C   C2        1.0  0.5194422354040639  0.42198652040446843  0.566886848494766  1.0000
  C   C3        1.0  0.4829663145614778  0.357472822974004  0.6703271112841127  1.0000
  C   C4        1.0  0.41029557529023175  0.3573618966489458  0.6704136956052174  1.0000
  C   C5        1.0  0.3731100004808494  0.4219866130722574  0.5668866207668677  1.0000
  C   C6        1.0  0.4103001039967232  0.48661151641549094  0.46335974042248074  1.0000
  C   C7        1.0  0.4829708013164267  0.4865003545209001  0.46344644732910223  1.0000
  C   C8        1.0  0.2959049100691632  0.42198653444471673  0.566886525369958  1.0000
  C   C9        1.0  0.25873255182842053  0.3086991760586235  0.6087967151783493  1.0000
  C   C10       1.0  0.1860618560229134  0.30880612304593935  0.6087053488134706  1.0000
  C   C11       1.0  0.14957262316176878  0.4219864052360226  0.5668865863261799  1.0000
  C   C12       1.0  0.0747545859937707  0.4219862913799808  0.5668868350412917  1.0000
  N   N2        1.0  0.014606269120514897  0.42198625046591637  0.5668870434886036  1.0000
  C   C13       1.0  0.18603090115032908  0.5351667632819233  0.5250677709199512  1.0000
  C   C14       1.0  0.25870158993553716  0.5352738904726498  0.5249762418909283  1.0000
  H   H1        1.0  0.5106793782018382  0.3075246315708598  0.7510901939164133  1.0000
  H   H2        1.0  0.3832001623368748  0.3082113868690186  0.7522921073586909  1.0000
  H   H3        1.0  0.3832089861639084  0.5357620532713024  0.38148127780825214  1.0000
  H   H4        1.0  0.510687509119824  0.5364484455380285  0.38268364054411724  1.0000
  H   H5        1.0  0.28583823662483143  0.2195236113431258  0.6399952502109862  1.0000
  H   H6        1.0  0.1583591122460636  0.22052937757102756  0.6409366344962198  1.0000
  H   H7        1.0  0.1583038214819789  0.6234434842119241  0.4928364997965706  1.0000
  H   H8        1.0  0.2857823839476779  0.6244495343898426  0.4937776620580818  1.0000
  C   C15       1.0  0.8345762792416607  0.04058659082334583  0.5670311745548886  1.0000
  C   C16       1.0  0.8332772939898815  0.02872487475388973  0.7038512072856474  1.0000
  C   C17       1.0  0.832558242208368  0.9055762438545927  0.7729581556707685  1.0000
  C   C18       1.0  0.8331433416397275  0.7934696828441646  0.703487787610124  1.0000
  C   C19       1.0  0.8344453056311839  0.8033759563911894  0.5667541597253252  1.0000
  C   C20       1.0  0.8351560774108373  0.9273944894431989  0.4993249139303304  1.0000
  C   C21       1.0  0.8311780155300678  0.8940096814856894  0.9176081085371689  1.0000
  C   C22       1.0  0.7884314299888843  0.8011008395539173  0.9856341521988917  1.0000
  C   C23       1.0  0.7871096116359971  0.7902981252289636  0.12174961328583836  1.0000
  C   C24       1.0  0.8289663436769344  0.871244579934403  0.19229969572988692  1.0000
  C   C25       1.0  0.8710478956903156  0.9651067863055509  0.12491626747876484  1.0000
  C   C26       1.0  0.872385847515986  0.9760852977814455  0.988800517656159  1.0000
  C   C27       1.0  0.8260845906445589  0.8619906896456271  0.3383959014498609  1.0000
  O   O1        1.0  0.774131779780749  0.94514918197831  0.37863930340771434  1.0000
  H   H9        1.0  0.8365766316493827  0.27026897177778997  0.3087769512997267  1.0000
  H   H10       1.0  0.8318582656484981  0.11547463132184578  0.7568633896750498  1.0000
  H   H11       1.0  0.8335326452113313  0.698323538315871  0.7563248951313324  1.0000
  H   H12       1.0  0.8361583545215892  0.9357517032173586  0.39385817534881956  1.0000
  H   H13       1.0  0.8348993066077469  0.47971078863742983  0.5141616109360198  1.0000
  H   H14       1.0  0.7552001166061008  0.7381155970127854  0.9335219206266074  1.0000
  H   H15       1.0  0.7532932016276295  0.7189458938889458  0.17212860628300666  1.0000
  H   H16       1.0  0.9029988778974326  0.029644664216167183  0.17777475576489987  1.0000
  H   H17       1.0  0.9062254339407793  0.047882600024119905  0.9392282227718644  1.0000
  H   H18       1.0  0.8772030172792078  0.8898018328398967  0.37856863035439725  1.0000
  H   H19       1.0  0.8147845400907666  0.7599524178007262  0.3762110566959621  1.0000
  H   H20       1.0  0.774375960787458  0.9354285571209368  0.47527255499067217  1.0000
  C   C28       1.0  0.8345630415440447  0.42213714952570763  0.18549638622883324  1.0000
  C   C29       1.0  0.9050734448173131  0.4576989105694201  0.18151402779605855  1.0000
  C   C30       1.0  0.9407133318990217  0.4755152468410094  0.06236282947492855  1.0000
  C   C31       1.0  0.9049269853654783  0.4573587327300992  0.9462569963761599  1.0000
  C   C32       1.0  0.834458533931734  0.4218254476476199  0.9482888883057116  1.0000
  C   C33       1.0  0.7996899815188191  0.4044140123338494  0.06841432461001662  1.0000
  C   C34       1.0  0.015262884026438158  0.5131110556050321  0.05924264318358597  1.0000
  C   C35       1.0  0.06197552976285903  0.45573548259300667  0.9756654324426801  1.0000
  C   C36       1.0  0.13209296724438002  0.4912516893904594  0.9728784055181118  1.0000
  C   C37       1.0  0.15713974435704656  0.5835320827179307  0.0543538722001844  1.0000
  C   C38       1.0  0.11035780604826105  0.6427540199864921  0.13636201571255624  1.0000
  C   C39       1.0  0.04020894089550042  0.6073444903416046  0.13924584514061378  1.0000
  N   N3        1.0  0.22931433551267097  0.6197419596000611  0.04780531020451484  1.0000
  C   C40       1.0  0.2692862913006253  0.6564179432100514  0.15652208159697545  1.0000
  O   O2        1.0  0.24577190066129084  0.6422542613418365  0.2708874055295629  1.0000
  H   H21       1.0  0.7015888393073038  0.35425213172975445  0.4003660391406376  1.0000
  H   H22       1.0  0.9326466583645682  0.4698953058423492  0.27143599801279006  1.0000
  H   H23       1.0  0.9318908982658817  0.47275164975641604  0.8540185039128555  1.0000
  H   H24       1.0  0.7453367169386937  0.3770027657118416  0.07069667049889894  1.0000
  H   H25       1.0  0.8073565196731503  0.40812209154271684  0.6215972838500524  1.0000
  H   H26       1.0  0.04446521492054889  0.38221979196310896  0.9135192910077211  1.0000
  H   H27       1.0  0.16721880710613513  0.44571007639972304  0.9079400267390452  1.0000
  H   H28       1.0  0.1274733411612996  0.7184344227100876  0.19610076236670798  1.0000
  H   H29       1.0  0.005164654144924837  0.6555525712767052  0.2022906814162733  1.0000
  H   H30       1.0  0.2560469477785863  0.6108019190824314  0.9606254786602242  1.0000
  H   H31       1.0  0.32146637911865183  0.6934606882997733  0.14068474802074094  1.0000
  Zn  Zn1       1.0  0.7583539047826775  0.4219828287014503  0.5668945510189269  1.0000
  Zn  Zn2       1.0  0.9106610248458462  0.42197914212757653  0.5668901637948411  1.0000
  C   C41       1.0  0.8344776320369678  0.4167102681381488  0.8041066811057236  1.0000
  C   C42       1.0  0.8345389604817266  0.4272533413503808  0.32967816054055166  1.0000
  C   C43       1.0  0.8344671934329982  0.6591946830703991  0.5616309602120224  1.0000
  C   C44       1.0  0.8345493473723682  0.18476736596256726  0.5721539512460787  1.0000
  O   O3        1.0  0.8923306379388859  0.428963316829407  0.3780652182455686  1.0000
  O   O4        1.0  0.8922835347803428  0.41499651498604706  0.7557159200821436  1.0000
  O   O5        1.0  0.8922743261222255  0.6108057461448215  0.559915059436495  1.0000
  O   O6        1.0  0.8923397946366457  0.23315409500265608  0.5738659815076878  1.0000
  O   O7        1.0  0.7766750830169337  0.6108078758290454  0.5599187333007459  1.0000
  O   O8        1.0  0.7766842914134346  0.4150002051285082  0.7557195241292343  1.0000
  O   O9        1.0  0.7767313948398944  0.4289669623503381  0.37806726079641334  1.0000
  O   O10       1.0  0.7767405515230671  0.2331577311942381  0.5738681214367276  1.0000
