data_image0
_chemical_formula_structural       NC11NC3H8C7OC3NC3H11C7OC6H10Zn2C4O8
_chemical_formula_sum              "N3 C44 H29 O10 Zn2"
_cell_length_a       17.807433833752565
_cell_length_b       10.298746005989749
_cell_length_c       10.299382801718286
_cell_angle_alpha    85.57508548997963
_cell_angle_beta     88.5048620642858
_cell_angle_gamma    90.6940108729131

_space_group_name_H-M_alt    "P 1"
_space_group_IT_number       1

loop_
  _space_group_symop_operation_xyz
  'x, y, z'

loop_
  _atom_site_type_symbol
  _atom_site_label
  _atom_site_symmetry_multiplicity
  _atom_site_fract_x
  _atom_site_fract_y
  _atom_site_fract_z
  _atom_site_occupancy
  N   N1        1.0  0.7078344532232385  0.4383302717974624  0.534746979434065  1.0000
  C   C1        1.0  0.6569987183439655  0.4036128435901969  0.6013072439793768  1.0000
  C   C2        1.0  0.5937539404564434  0.36042722404984784  0.6840997189439776  1.0000
  C   C3        1.0  0.6054511279053612  0.29689419262811834  0.8068143268228984  1.0000
  C   C4        1.0  0.5441143471559992  0.25538807139549946  0.8873229780253811  1.0000
  C   C5        1.0  0.47092587678516246  0.27710180435635384  0.8457577983829696  1.0000
  C   C6        1.0  0.45825200037151503  0.34078931552109504  0.7225830019517312  1.0000
  C   C7        1.0  0.3804959788385824  0.36383276893913413  0.6782372505242303  1.0000
  C   C8        1.0  0.36173609521163413  0.34693510833938435  0.5486551181406109  1.0000
  C   C9        1.0  0.28851768726492294  0.3686101018107961  0.5070458640927322  1.0000
  C   C10       1.0  0.2331162792788449  0.4075011591922591  0.5941984865216272  1.0000
  C   C11       1.0  0.1577614777189028  0.42983442282309325  0.551227977372116  1.0000
  N   N2        1.0  0.0971815899400492  0.4477887075918699  0.516682815398715  1.0000
  C   C12       1.0  0.2511847229403021  0.4246093166986824  0.7232494969302123  1.0000
  C   C13       1.0  0.3243503160236049  0.4028994374770173  0.7651141790671043  1.0000
  C   C14       1.0  0.5204460893717144  0.38229087446555204  0.6420907663380708  1.0000
  H   H1        1.0  0.6619087630637212  0.27948438920096624  0.8401788179154378  1.0000
  H   H2        1.0  0.5532892870249896  0.20594906524782908  0.9820561398033003  1.0000
  H   H3        1.0  0.42427097094239996  0.2425545403402039  0.9091947763223212  1.0000
  H   H4        1.0  0.4034248705133526  0.3152778591034122  0.4799360985498498  1.0000
  H   H5        1.0  0.2750944165842246  0.35470968101496264  0.4070099172635777  1.0000
  H   H6        1.0  0.20877914919906573  0.455043339800115  0.7914536610787747  1.0000
  H   H7        1.0  0.3372453357734229  0.4183453652695692  0.8649674775506213  1.0000
  H   H8        1.0  0.511969709803834  0.4330923925457816  0.5475920158834664  1.0000
  C   C15       1.0  0.902475714348088  0.06165661827784197  0.5256992030149172  1.0000
  C   C16       1.0  0.9376438785372402  0.07099549505034333  0.401563981538651  1.0000
  C   C17       1.0  0.9546367382783865  0.9585750018354467  0.33814285953481954  1.0000
  C   C18       1.0  0.9376444514697118  0.8357588998251957  0.4015148181432051  1.0000
  C   C19       1.0  0.9025474935701191  0.824452562363272  0.5257414270789783  1.0000
  C   C20       1.0  0.88500501935111  0.9379680031564412  0.5868992804195037  1.0000
  C   C21       1.0  0.9924124417282216  0.9682608737719626  0.20757543220698563  1.0000
  O   O1        1.0  0.038287824240815574  0.8813928967967029  0.18023488200848606  1.0000
  C   C22       1.0  0.9781470091498408  0.07643425457562604  0.10803217884633076  1.0000
  C   C23       1.0  0.9070118603746756  0.13409611260835352  0.09922519902909244  1.0000
  C   C24       1.0  0.8938660865679608  0.23543082503915969  0.003928871229299298  1.0000
  N   N3        1.0  0.8215281391816378  0.2939058179191678  0.9960810675686118  1.0000
  C   C25       1.0  0.9519021926274028  0.2787121467252609  0.9161025550769955  1.0000
  C   C26       1.0  0.022351947867019776  0.22086854564397207  0.9230852741131602  1.0000
  C   C27       1.0  0.035439345061600847  0.11995683530979884  0.018080104262729883  1.0000
  H   H9        1.0  0.8370668614690101  0.25133137276984124  0.7610681228455867  1.0000
  H   H10       1.0  0.9525929455836472  0.16586726821805134  0.35464888399125627  1.0000
  H   H11       1.0  0.951203106332678  0.7488882572911633  0.35318815715790186  1.0000
  H   H12       1.0  0.857900417256931  0.930017428892025  0.6825867804323068  1.0000
  H   H13       1.0  0.8365144118814057  0.5957780892798988  0.7606507859688293  1.0000
  H   H14       1.0  0.8615034474935055  0.09959780323944202  0.1652988420418331  1.0000
  H   H15       1.0  0.7778652674018195  0.2624022088788853  0.0610576291297138  1.0000
  H   H16       1.0  0.8111199426534  0.36925571675817026  0.9253260148009179  1.0000
  H   H17       1.0  0.9424490529564743  0.3568208640605024  0.842054468253064  1.0000
  H   H18       1.0  0.06694032875486267  0.2543084847568562  0.8547220216072864  1.0000
  H   H19       1.0  0.09053723454388707  0.076654555587089  0.022051286974867253  1.0000
  C   C28       1.0  0.9025865451736336  0.4429831704073051  0.1443470527212991  1.0000
  C   C29       1.0  0.9815128645848097  0.44576407127267925  0.13938157295234532  1.0000
  C   C30       1.0  0.021320921861863077  0.4456784702146944  0.01981892780952776  1.0000
  C   C31       1.0  0.9813297951237882  0.4457876631046138  0.9041444996559944  1.0000
  C   C32       1.0  0.902436644035949  0.4431259969683402  0.9070935504631776  1.0000
  C   C33       1.0  0.8635226225087006  0.44139443805640877  0.027739399491446326  1.0000
  C   C34       1.0  0.1046569862303326  0.4499988149222079  0.014324101709019432  1.0000
  O   O2        1.0  0.13776422564100185  0.5115171813126504  0.9182648268723552  1.0000
  C   C35       1.0  0.15043472866651486  0.3845219808059086  0.11770237615469939  1.0000
  C   C36       1.0  0.22105327879400158  0.4367016474137695  0.14553038175755661  1.0000
  C   C37       1.0  0.26499908865484434  0.3748299387609313  0.24174211410283555  1.0000
  C   C38       1.0  0.23924629550834764  0.25989093032109506  0.31029405153258255  1.0000
  C   C39       1.0  0.16962382270307508  0.20628837423190682  0.28239672637214897  1.0000
  C   C40       1.0  0.12546396149433892  0.26777613803152844  0.18629696325745848  1.0000
  H   H20       1.0  0.7536409550206594  0.4397470657940109  0.3608823112758983  1.0000
  H   H21       1.0  0.012119164555094207  0.4494583196482569  0.22856057963891696  1.0000
  H   H22       1.0  0.01194354573751743  0.44670272912412634  0.8117726675946259  1.0000
  H   H23       1.0  0.8026763770344176  0.4392513717955646  0.0307631750129469  1.0000
  H   H24       1.0  0.8721294790551097  0.44320857743862146  0.5806846961783562  1.0000
  H   H25       1.0  0.24191915549692955  0.5258892044849985  0.0936321074726445  1.0000
  H   H26       1.0  0.3190813173800844  0.41603093381579215  0.26310798349016995  1.0000
  H   H27       1.0  0.27336989599910666  0.21208845542136293  0.38465133655654016  1.0000
  H   H28       1.0  0.1499807672000557  0.11667457535760528  0.3348670012236679  1.0000
  H   H29       1.0  0.07228352176102848  0.2233145992635872  0.1647028369782022  1.0000
  Zn  Zn1       1.0  0.8201916245197466  0.4410562985067692  0.5295415363127731  1.0000
  Zn  Zn2       1.0  0.9848244008033511  0.44505206232501543  0.5218988440663486  1.0000
  C   C41       1.0  0.902462838288495  0.4379248128208748  0.7629179539536572  1.0000
  C   C42       1.0  0.9025549849485857  0.4481852304342313  0.2885224705261509  1.0000
  C   C43       1.0  0.9025310842977949  0.6802668122813598  0.5205584055352349  1.0000
  C   C44       1.0  0.9024866826011616  0.2058416691813927  0.5308820907055053  1.0000
  O   O3        1.0  0.9650216731241826  0.4514417945984886  0.33400869560912044  1.0000
  O   O4        1.0  0.96494861795026  0.43769996105903736  0.7116307283909549  1.0000
  O   O5        1.0  0.965002884976893  0.6333941702677041  0.5159237174826752  1.0000
  O   O6        1.0  0.9649673499395434  0.2557475932991567  0.5297156117500676  1.0000
  O   O7        1.0  0.8400486192024693  0.6303607661704828  0.5217247712302984  1.0000
  O   O8        1.0  0.8399943523328754  0.434668117392024  0.7174317129788905  1.0000
  O   O9        1.0  0.8400674078593073  0.4484099053803177  0.3398081187737166  1.0000
  O   O10       1.0  0.8400130846515892  0.2527156948095055  0.5355151322832408  1.0000
